<?xml version="1.0" encoding="UTF-8"?>

<!-- generated on 2022-06-27 17:06:06 by Eclipse SUMO netconvert Version 1.12.0
<configuration xmlns:xsi="http://www.w3.org/2001/XMLSchema-instance" xsi:noNamespaceSchemaLocation="http://sumo.dlr.de/xsd/netconvertConfiguration.xsd">

    <input>
        <sumo-net-file value="/home/lobo/Repository/RealFuture_repo/InTAS_RealFuture/scenario/InTAS.net.xml"/>
    </input>

    <output>
        <plain-output-prefix value="/home/lobo/Repository/RealFuture_repo/InTAS_RealFuture/scenario/InTAS"/>
    </output>

    <processing>
        <geometry.min-radius.fix.railways value="false"/>
        <geometry.max-grade.fix value="false"/>
        <offset.disable-normalization value="true"/>
        <roundabouts.guess value="false"/>
        <lefthand value="false"/>
    </processing>

    <junctions>
        <no-turnarounds value="true"/>
        <junctions.corner-detail value="5"/>
        <junctions.limit-turn-speed value="5.5"/>
        <rectangular-lane-cut value="false"/>
    </junctions>

    <pedestrian>
        <walkingareas value="false"/>
    </pedestrian>

    <report>
        <aggregate-warnings value="5"/>
    </report>

</configuration>
-->

<tlLogics version="1.9" xmlns:xsi="http://www.w3.org/2001/XMLSchema-instance" xsi:noNamespaceSchemaLocation="http://sumo.dlr.de/xsd/tllogic_file.xsd">
    <tlLogic id="1863241632" type="actuated" programID="0" offset="0">
        <phase duration="35" state="rrGGGGg" minDur="7" maxDur="50"/>
        <phase duration="5"  state="rryyyyg"/>
        <phase duration="6"  state="rrrrGGG" minDur="7" maxDur="50"/>
        <phase duration="5"  state="rrrryyy"/>
        <phase duration="34" state="GGGrrrr" minDur="10" maxDur="50"/>
        <phase duration="5"  state="yyyrrrr"/>
    </tlLogic>
    <tlLogic id="2033094557" type="actuated" programID="0" offset="0">
        <phase duration="26" state="GGGrr"/>
        <phase duration="4"  state="yyyrr"/>
        <phase duration="26" state="GrrrG"/>
        <phase duration="4"  state="yrrry"/>
        <phase duration="26" state="rrGGr"/>
        <phase duration="4"  state="rryyr"/>
    </tlLogic>
    <tlLogic id="214620430" type="actuated" programID="0" offset="0">
        <phase duration="28" state="rrrrgGGgrrrrgGGgGrGr"/>
        <phase duration="5"  state="rrrrgGGgrrrrgGGgrrrr"/>
        <phase duration="3"  state="rrrryyygrrrryyygrrrr"/>
        <phase duration="6"  state="rrrrrrrGrrrrrrrGrrrr"/>
        <phase duration="3"  state="rrrrrrryrrrrrrryrrrr"/>
        <phase duration="28" state="gGggrrrrggGgrrrrrGrG"/>
        <phase duration="5"  state="gGggrrrrggGgrrrrrrrr"/>
        <phase duration="3"  state="yyggrrrryyygrrrrrrrr"/>
        <phase duration="6"  state="rrGGrrrrrrrGrrrrrrrr"/>
        <phase duration="3"  state="rryyrrrrrrryrrrrrrrr"/>
    </tlLogic>
    <tlLogic id="21532591" type="actuated" programID="0" offset="0">
        <phase duration="42" state="GgrrrGGG"/>
        <phase duration="3"  state="yyrrryyy"/>
        <phase duration="42" state="rrGGGGrr"/>
        <phase duration="3"  state="rryyyyrr"/>
    </tlLogic>
    <tlLogic id="21532605" type="actuated" programID="0" offset="0">
        <phase duration="28" state="rrrgGGgrrrgGGgGrGr"/>
        <phase duration="5"  state="rrrgGGgrrrgGGgrrrr"/>
        <phase duration="3"  state="rrryyygrrryyygrrrr"/>
        <phase duration="6"  state="rrrrrrGrrrrrrGrrrr"/>
        <phase duration="3"  state="rrrrrryrrrrrryrrrr"/>
        <phase duration="28" state="gGgrrrrgGgrrrrrGrG"/>
        <phase duration="5"  state="gGgrrrrgGgrrrrrrrr"/>
        <phase duration="3"  state="yygrrrryygrrrrrrrr"/>
        <phase duration="6"  state="rrGrrrrrrGrrrrrrrr"/>
        <phase duration="3"  state="rryrrrrrryrrrrrrrr"/>
    </tlLogic>
    <tlLogic id="21532622" type="static" programID="0" offset="0">
        <phase duration="82" state="GGGG"/>
        <phase duration="3"  state="yyyy"/>
        <phase duration="5"  state="rrrr"/>
    </tlLogic>
    <tlLogic id="2330725114" type="actuated" programID="0" offset="0">
        <phase duration="30" state="rrgGGgGrr" minDur="7" maxDur="50"/>
        <phase duration="5"  state="rrgGGgrrr"/>
        <phase duration="5"  state="rryyygrrr"/>
        <phase duration="6"  state="rrrrGGrrr" minDur="7" maxDur="50"/>
        <phase duration="5"  state="rrrryyrrr"/>
        <phase duration="29" state="gGGrrrrrG" minDur="10" maxDur="50"/>
        <phase duration="5"  state="gGGrrrrrr"/>
        <phase duration="5"  state="yyyrrrrrr"/>
        <phase duration="5"  state="rrrrrrGGG"/>
        <phase duration="5"  state="rrrrrrrrr"/>
    </tlLogic>
    <tlLogic id="241292286" type="actuated" programID="0" offset="0">
        <phase duration="37" state="rrrGgrrrgGgGrGr"/>
        <phase duration="5"  state="rrrGgrrrgGgrrrr"/>
        <phase duration="3"  state="rrryyrrryyyrrrr"/>
        <phase duration="37" state="gGgrrgGgrrrrGrG"/>
        <phase duration="5"  state="gGgrrgGgrrrrrrr"/>
        <phase duration="3"  state="yyyrryyyrrrrrrr"/>
    </tlLogic>
    <tlLogic id="243351999" type="actuated" programID="0" offset="0">
        <phase duration="33" state="gGGgrrrG"/>
        <phase duration="5"  state="gGGgrrrr"/>
        <phase duration="3"  state="yyygrrrr"/>
        <phase duration="6"  state="rrGGrrrr"/>
        <phase duration="3"  state="rryyrrrr"/>
        <phase duration="32" state="GrrrgGGr"/>
        <phase duration="5"  state="GrrrgGrr"/>
        <phase duration="3"  state="yrrryyrr"/>
    </tlLogic>
    <tlLogic id="243641585" type="actuated" programID="0" offset="0">
        <phase duration="1"  state="rrrrrrr"/>
        <phase duration="15" state="rGgGGGr"/>
        <phase duration="5"  state="rGgGrrr"/>
        <phase duration="3"  state="rGgyrrr"/>
        <phase duration="25" state="rGgrGGr"/>
        <phase duration="5"  state="rGgrrrr"/>
        <phase duration="3"  state="ryyrrrr"/>
        <phase duration="21" state="GrrrrGG"/>
        <phase duration="5"  state="Grrrrrr"/>
        <phase duration="3"  state="yrrrrrr"/>
    </tlLogic>
    <tlLogic id="243749571" type="actuated" programID="0" offset="0">
        <phase duration="24" state="gGgrrrgGrrrrGrGr" minDur="10" maxDur="50"/>
        <phase duration="5"  state="gGgrrrgGrrrrrrrr"/>
        <phase duration="5"  state="yygrrryyrrrrrrrr"/>
        <phase duration="6"  state="rrGrrrrrGrrrrrrr" minDur="10" maxDur="50"/>
        <phase duration="5"  state="rryrrrrryrrrrrrr"/>
        <phase duration="24" state="rrrgGgrrrgGgrGrG" minDur="5" maxDur="50"/>
        <phase duration="5"  state="rrrgGgrrrgGgrrrr"/>
        <phase duration="5"  state="rrryygrrryygrrrr"/>
        <phase duration="6"  state="rrrrrGrrrrrGrrrr" minDur="5" maxDur="50"/>
        <phase duration="5"  state="rrrrryrrrrryrrrr"/>
    </tlLogic>
    <tlLogic id="243780145" type="actuated" programID="0" offset="0">
        <phase duration="24" state="gGgrrrgGgrrrrGrG"/>
        <phase duration="5"  state="gGgrrrgGgrrrrrrr"/>
        <phase duration="3"  state="yyyrrrGGgrrrrrrr"/>
        <phase duration="5"  state="rrrrrrgGgrrrrGrG"/>
        <phase duration="5"  state="rrrrrrgGgrrrrrrr"/>
        <phase duration="3"  state="rrrrrryyyrrrrrrr"/>
        <phase duration="24" state="rrrgGgrrrgGgGrGr"/>
        <phase duration="5"  state="rrrgGgrrrgGgrrrr"/>
        <phase duration="3"  state="rrryyyrrryyyrrrr"/>
    </tlLogic>
    <tlLogic id="249179882" type="actuated" programID="0" offset="0">
        <phase duration="33" state="rrrrrGGGgrrrrrGGGg"/>
        <phase duration="3"  state="rrrrryyygrrrrryyyg"/>
        <phase duration="6"  state="rrrrrrrrGrrrrrrrrG"/>
        <phase duration="3"  state="rrrrrrrryrrrrrrrry"/>
        <phase duration="33" state="GGGggrrrrGGGggrrrr"/>
        <phase duration="3"  state="yyyggrrrryyyggrrrr"/>
        <phase duration="6"  state="rrrGGrrrrrrrGGrrrr"/>
        <phase duration="3"  state="rrryyrrrrrrryyrrrr"/>
    </tlLogic>
    <tlLogic id="249179919" type="static" programID="0" offset="0">
        <phase duration="64" state="rrGGrGGGr"/>
        <phase duration="5"  state="rrGGrGGrr"/>
        <phase duration="3"  state="rryyryyrr"/>
        <phase duration="10" state="GGrrGrrrG"/>
        <phase duration="5"  state="GGrrGrrrr"/>
        <phase duration="3"  state="yyrryrrrr"/>
    </tlLogic>
    <tlLogic id="249720697" type="actuated" programID="0" offset="0">
        <phase duration="37" state="gGgrrrgGgrrrGrGr"/>
        <phase duration="5"  state="gGgrrrgGgrrrrrrr"/>
        <phase duration="3"  state="yyyrrryyyrrrrrrr"/>
        <phase duration="37" state="rrrgGgrrrgGgrGrG"/>
        <phase duration="5"  state="rrrgGgrrrgGgrrrr"/>
        <phase duration="3"  state="rrryyyrrryyyrrrr"/>
    </tlLogic>
    <tlLogic id="249721581" type="static" programID="0" offset="0">
        <phase duration="11" state="rrrrrrgGGGrrrGrr"/>
        <phase duration="5"  state="rrrrrrgGGGrrrrrr"/>
        <phase duration="5"  state="rrrrrryyyyrrrrrr"/>
        <phase duration="13" state="gGGGrrrrrrrrrrrG"/>
        <phase duration="5"  state="gGGGrrrrrrrrrrrr"/>
        <phase duration="5"  state="yyyyrrrrrrrrrrrr"/>
        <phase duration="13" state="GrrrrrrrrgGGrrGr"/>
        <phase duration="5"  state="GrrrrrrrrgGGrrrr"/>
        <phase duration="5"  state="yrrrrrrrryyyrrrr"/>
        <phase duration="13" state="rrrgGGGrrrrrGrrr"/>
        <phase duration="5"  state="rrrgGGGrrrrrrrrr"/>
        <phase duration="5"  state="rrryyyyrrrrrrrrr"/>
    </tlLogic>
    <tlLogic id="250713433" type="actuated" programID="0" offset="0">
        <phase duration="42" state="GGrrrrGG"/>
        <phase duration="3"  state="yyrrrryy"/>
        <phase duration="42" state="rrGGGGrr"/>
        <phase duration="3"  state="rryyyyrr"/>
    </tlLogic>
    <tlLogic id="25579778" type="actuated" programID="0" offset="0">
        <phase duration="45" state="gGGgrrrrrgGGgGrG"/>
        <phase duration="5"  state="gGGgrrrrrgGGgrrr"/>
        <phase duration="5"  state="yyyyrrrrrGGGGrrr"/>
        <phase duration="5"  state="rrrrrrrrrGGGGrrr"/>
        <phase duration="3"  state="rrrrrrrrrGyyyrrr"/>
        <phase duration="20" state="rrrrggGGGGrrrrGr"/>
        <phase duration="5"  state="rrrrggGGGGrrrrrr"/>
        <phase duration="3"  state="rrrryyyyyyrrrrrr"/>
    </tlLogic>
    <tlLogic id="25579808" type="actuated" programID="0" offset="0">
        <phase duration="42" state="GgrrGG"/>
        <phase duration="3"  state="yyrryy"/>
        <phase duration="42" state="rrGGGr"/>
        <phase duration="3"  state="rryyyr"/>
    </tlLogic>
    <tlLogic id="255883212" type="actuated" programID="0" offset="0">
        <phase duration="11" state="rrrrrrgGGGrrrGrr"/>
        <phase duration="5"  state="rrrrrrgGGGrrrrrr"/>
        <phase duration="5"  state="rrrrrryyyyrrrrrr"/>
        <phase duration="13" state="GrrrrrrrrgGGrrGr"/>
        <phase duration="5"  state="GrrrrrrrrgGGrrrr"/>
        <phase duration="5"  state="yrrrrrrrryyyrrrr"/>
        <phase duration="13" state="rrrgGGGrrrrrGrrr"/>
        <phase duration="5"  state="rrrgGGGrrrrrrrrr"/>
        <phase duration="5"  state="rrryyyyrrrrrrrrr"/>
        <phase duration="13" state="gGGGrrrrrrrrrrrG"/>
        <phase duration="5"  state="gGGGrrrrrrrrrrrr"/>
        <phase duration="5"  state="yyyyrrrrrrrrrrrr"/>
    </tlLogic>
    <tlLogic id="260470961" type="actuated" programID="0" offset="0">
        <phase duration="37" state="GGrrrGGrGr" minDur="5" maxDur="50"/>
        <phase duration="5"  state="GGrrrGGrrr"/>
        <phase duration="3"  state="yyrrryyrrr"/>
        <phase duration="37" state="rrgGGrrGrr" minDur="5" maxDur="50"/>
        <phase duration="5"  state="rrgGGrrrrr"/>
        <phase duration="3"  state="rryyyrrrrr"/>
    </tlLogic>
    <tlLogic id="26288878" type="actuated" programID="0" offset="0">
        <phase duration="40" state="rrrGGGGGGg" minDur="5" maxDur="50"/>
        <phase duration="5"  state="rrryyyyyyy"/>
        <phase duration="40" state="GGGGrrrrrr" minDur="10" maxDur="50"/>
        <phase duration="5"  state="yyyyrrrrrr"/>
    </tlLogic>
    <tlLogic id="26423900" type="static" programID="0" offset="0">
        <phase duration="38" state="GGGGgrrr"/>
        <phase duration="3"  state="yyyygrrr"/>
        <phase duration="6"  state="rrGGGrrr"/>
        <phase duration="3"  state="rryyyrrr"/>
        <phase duration="37" state="GrrrrGGG"/>
        <phase duration="3"  state="yrrrryyy"/>
    </tlLogic>
    <tlLogic id="26423915" type="actuated" programID="0" offset="0">
        <phase duration="31" state="GgrrgGG"/>
        <phase duration="5"  state="GgrrgGr"/>
        <phase duration="4"  state="ygrryyr"/>
        <phase duration="6"  state="GGrrrrr"/>
        <phase duration="4"  state="yyrrrrr"/>
        <phase duration="36" state="rrGGGrr"/>
        <phase duration="4"  state="rryyyrr"/>
    </tlLogic>
    <tlLogic id="266359531" type="actuated" programID="0" offset="0">
        <phase duration="38" state="GGgrrrGgG"/>
        <phase duration="3"  state="yygrrryyy"/>
        <phase duration="6"  state="GGGrrrrrr"/>
        <phase duration="3"  state="yyyrrrrrr"/>
        <phase duration="37" state="rrrGGGrGr"/>
        <phase duration="3"  state="rrryyyryr"/>
    </tlLogic>
    <tlLogic id="266812023" type="actuated" programID="0" offset="0">
        <phase duration="31" state="GGGgrrrrrGGgrrr"/>
        <phase duration="4"  state="yyygrrrrryygrrr"/>
        <phase duration="6"  state="rrrGrrrrrrrGrrr"/>
        <phase duration="4"  state="rrryrrrrrrryrrr"/>
        <phase duration="31" state="rrrrGGGggrrrGGg"/>
        <phase duration="4"  state="rrrryyyggrrryyg"/>
        <phase duration="6"  state="rrrrrrrGGrrrrrG"/>
        <phase duration="4"  state="rrrrrrryyrrrrry"/>
    </tlLogic>
    <tlLogic id="267380207" type="static" programID="0" offset="0">
        <phase duration="27" state="rrGGrrrGg"/>
        <phase duration="3"  state="rryyrrryy"/>
        <phase duration="27" state="GGGrrrrrr"/>
        <phase duration="3"  state="yyyrrrrrr"/>
        <phase duration="27" state="rrrrGGGrr"/>
        <phase duration="3"  state="rrrryyyrr"/>
    </tlLogic>
    <tlLogic id="267517510" type="actuated" programID="0" offset="0">
        <phase duration="37" state="rrgGGGGgGrr"/>
        <phase duration="5"  state="rrgGGGGgrrr"/>
        <phase duration="3"  state="rryyyyyyrrr"/>
        <phase duration="37" state="gGGrrrrrrrG"/>
        <phase duration="5"  state="gGGrrrrrrrr"/>
        <phase duration="3"  state="yyyrrrrrrrr"/>
        <phase duration="5"  state="rrrrrrrrGGG"/>
        <phase duration="5"  state="rrrrrrrrrrr"/>
    </tlLogic>
    <tlLogic id="268417350" type="actuated" programID="0" offset="0">
        <phase duration="19" state="rrgGGG"/>
        <phase duration="5"  state="rrgrrr"/>
        <phase duration="3"  state="rryrrr"/>
        <phase duration="8"  state="rrrrrr"/>
        <phase duration="14" state="GrrGrG"/>
        <phase duration="5"  state="Grrrrr"/>
        <phase duration="3"  state="yrrrrr"/>
        <phase duration="25" state="rGrGGr"/>
        <phase duration="5"  state="rGrrrr"/>
        <phase duration="3"  state="ryrrrr"/>
    </tlLogic>
    <tlLogic id="271405446" type="actuated" programID="0" offset="0">
        <phase duration="33" state="rrrrrgGGgrrrrrgGGgGGr"/>
        <phase duration="5"  state="rrrrrgGGgrrrrrgGGgrrr"/>
        <phase duration="3"  state="rrrrryyygrrrrryyygrrr"/>
        <phase duration="6"  state="rrrrrrrrGrrrrrrrrGrrr"/>
        <phase duration="3"  state="rrrrrrrryrrrrrrrryrrr"/>
        <phase duration="32" state="ggGggrrrrGGGggrrrrrrG"/>
        <phase duration="5"  state="ggGggrrrrGGGggrrrrrrr"/>
        <phase duration="3"  state="yyyyyrrrryyyyyrrrrrrr"/>
    </tlLogic>
    <tlLogic id="279014956" type="actuated" programID="0" offset="0">
        <phase duration="45" state="GGgGGrrrrrGrG"/>
        <phase duration="5"  state="GGgGGrrrrrrrr"/>
        <phase duration="5"  state="GGyyyrrrrrrrr"/>
        <phase duration="3"  state="yyrrrrrrrrrrr"/>
        <phase duration="20" state="rrrrrggGGGrGr"/>
        <phase duration="5"  state="rrrrrggGGGrrr"/>
        <phase duration="3"  state="rrrrryyyyyrrr"/>
    </tlLogic>
    <tlLogic id="279299817" type="actuated" programID="0" offset="0">
        <phase duration="25" state="gGGgrrrrrgGGgrrrGrG"/>
        <phase duration="5"  state="gGGgrrrrrgGGgrrrrrr"/>
        <phase duration="5"  state="gGGgrrrrrgGGgrrrGrG"/>
        <phase duration="5"  state="gGGgrrrrrgGGgrrrrrr"/>
        <phase duration="3"  state="GGGgrrrrryyyyrrrrrr"/>
        <phase duration="6"  state="gGGGrrrrrrrrrrrrrrr"/>
        <phase duration="5"  state="gGGgrrrrrrrrrrrrGrG"/>
        <phase duration="5"  state="gGGgrrrrrrrrrrrrrrr"/>
        <phase duration="3"  state="yyyyrrrrrrrrrrrrrrr"/>
        <phase duration="10" state="rrrrggGggrrrrgGgrGr"/>
        <phase duration="5"  state="rrrrggGggrrrrgGgrrr"/>
        <phase duration="5"  state="rrrrggGggrrrrgGgrGr"/>
        <phase duration="5"  state="rrrrggGggrrrrgGgrrr"/>
        <phase duration="3"  state="rrrryyyyyrrrryyyrrr"/>
    </tlLogic>
    <tlLogic id="279461126" type="static" programID="0" offset="0">
        <phase duration="42" state="rrGGGg"/>
        <phase duration="3"  state="rryyyy"/>
        <phase duration="42" state="GGGrrr"/>
        <phase duration="3"  state="yyyrrr"/>
        <phase duration="10" state="rrrrrr"/>
    </tlLogic>
    <tlLogic id="281435582" type="actuated" programID="0" offset="0">
        <phase duration="42" state="GgrrGG"/>
        <phase duration="3"  state="yyrryy"/>
        <phase duration="42" state="rrGGGr"/>
        <phase duration="3"  state="rryyyr"/>
    </tlLogic>
    <tlLogic id="281967823" type="static" programID="0" offset="0">
        <phase duration="38" state="rrrrGGGGgrrrrGGgg"/>
        <phase duration="3"  state="rrrryyyygrrrryygg"/>
        <phase duration="6"  state="rrrrrrrrGrrrrrrGG"/>
        <phase duration="3"  state="rrrrrrrryrrrrrryy"/>
        <phase duration="37" state="GGggrrrrrGGGgrrrr"/>
        <phase duration="3"  state="yyyyrrrrryyyyrrrr"/>
    </tlLogic>
    <tlLogic id="290100048" type="actuated" programID="0" offset="0">
        <phase duration="33" state="rrgGGGGgGr"/>
        <phase duration="5"  state="rrgGGGGgrr"/>
        <phase duration="3"  state="rryyyyygrr"/>
        <phase duration="6"  state="rrrrrGGGrr"/>
        <phase duration="3"  state="rrrrryyyrr"/>
        <phase duration="32" state="gGGrrrrrrG"/>
        <phase duration="5"  state="gGGrrrrrrr"/>
        <phase duration="3"  state="yyyrrrrrrr"/>
    </tlLogic>
    <tlLogic id="296125095" type="actuated" programID="0" offset="0">
        <phase duration="79" state="GgrrGG"/>
        <phase duration="3"  state="yyrryy"/>
        <phase duration="5"  state="rrGGGr"/>
        <phase duration="3"  state="rryyyr"/>
    </tlLogic>
    <tlLogic id="30503246" type="actuated" programID="0" offset="0">
        <phase duration="33" state="GGgggGGGrrrrrrrGrG" minDur="5" maxDur="50"/>
        <phase duration="5"  state="GGgggGGGrrrrrrrrrr"/>
        <phase duration="3"  state="yyggyyyyrrrrrrrrrr"/>
        <phase duration="6"  state="GGGGrrrrrrrrrrrrrr" minDur="5" maxDur="50"/>
        <phase duration="3"  state="yyyyrrrrrrrrrrrrrr"/>
        <phase duration="32" state="rrrrrrrrggGGGGGrGr" minDur="5" maxDur="50"/>
        <phase duration="5"  state="rrrrrrrrggGGGGGrrr"/>
        <phase duration="3"  state="rrrrrrrryyyyyyyrrr"/>
    </tlLogic>
    <tlLogic id="30624898" type="actuated" programID="0" offset="0">
        <phase duration="33" state="gGGGrrrrrrGGggGrG" minDur="5" maxDur="50"/>
        <phase duration="5"  state="gGGGrrrrrrGGggrrr"/>
        <phase duration="3"  state="yyyyrrrrrryyggrrr"/>
        <phase duration="6"  state="rrrrrrrrrrGGGGrrr" minDur="5" maxDur="50"/>
        <phase duration="3"  state="rrrrrrrrrryyyyrrr"/>
        <phase duration="32" state="rrrrggGGGGrrrrrGr" minDur="5" maxDur="50"/>
        <phase duration="5"  state="rrrrggGGGGrrrrrrr"/>
        <phase duration="3"  state="rrrryyyyyyrrrrrrr"/>
    </tlLogic>
    <tlLogic id="30965800" type="actuated" programID="0" offset="0">
        <phase duration="19" state="rrrrrgGGgrrrrrgGGgGrGr" minDur="5" maxDur="50"/>
        <phase duration="5"  state="rrrrrgGGgrrrrrgGGgrrrr"/>
        <phase duration="5"  state="rrrrrgGGgrrrrrGGGgrrrr"/>
        <phase duration="5"  state="rrrrryyygrrrrryyygrrrr"/>
        <phase duration="6"  state="rrrrrrrrGrrrrrrrrGrrrr" minDur="5" maxDur="50"/>
        <phase duration="5"  state="rrrrrrrryrrrrrrrryrrrr"/>
        <phase duration="19" state="ggGrrrrrrggGggrrrrrGrG" minDur="10" maxDur="50"/>
        <phase duration="10" state="ggGrrrrrrggGggrrrrrrrr"/>
        <phase duration="5"  state="yyyrrrrrryyyggrrrrrrrr"/>
        <phase duration="19" state="rrrggrrrrrrrggrrrrrGrG" minDur="10" maxDur="50"/>
        <phase duration="10" state="rrrggrrrrrrrggrrrrrrrr"/>
        <phase duration="5"  state="rrryyrrrrrrryyrrrrrrrr"/>
    </tlLogic>
    <tlLogic id="30965809" type="actuated" programID="0" offset="0">
        <phase duration="11" state="rrrrrrGGGrrrGrr"/>
        <phase duration="5"  state="rrrrrrGGGrrrrrr"/>
        <phase duration="5"  state="rrrrrryyyrrrrrr"/>
        <phase duration="13" state="gGGGrrrrrrrrrrG"/>
        <phase duration="5"  state="gGGGrrrrrrrrrrr"/>
        <phase duration="5"  state="yyyyrrrrrrrrrrr"/>
        <phase duration="13" state="GrrrrrrrgGGrrGr"/>
        <phase duration="5"  state="GrrrrrrrgGGrrrr"/>
        <phase duration="5"  state="yrrrrrrryyyrrrr"/>
        <phase duration="13" state="rrrgGgrrrrrGrGr"/>
        <phase duration="5"  state="rrrgGgrrrrrrrrr"/>
        <phase duration="5"  state="rrryyyrrrrrrrrr"/>
    </tlLogic>
    <tlLogic id="30965815" type="actuated" programID="0" offset="0">
        <phase duration="38" state="rrrgGgrrrGGg"/>
        <phase duration="3"  state="rrrgygrrryyg"/>
        <phase duration="6"  state="rrrgrGrrrrrG"/>
        <phase duration="3"  state="rrryryrrrrry"/>
        <phase duration="37" state="GGgrrrGGgrrr"/>
        <phase duration="3"  state="yyyrrryyyrrr"/>
    </tlLogic>
    <tlLogic id="319229058" type="actuated" programID="0" offset="0">
        <phase duration="33" state="rrrgGgrrrgGgGrGr" minDur="5" maxDur="50"/>
        <phase duration="5"  state="rrrgGgrrrgGgrrrr"/>
        <phase duration="3"  state="rrryygrrryygrrrr"/>
        <phase duration="6"  state="rrrrrGrrrrrGrrrr" minDur="5" maxDur="50"/>
        <phase duration="3"  state="rrrrryrrrrryrrrr"/>
        <phase duration="32" state="gGgrrrgGgrrrrGrG" minDur="5" maxDur="50"/>
        <phase duration="5"  state="gGgrrrgGgrrrrrrr"/>
        <phase duration="3"  state="yyyrrryyyrrrrrrr"/>
    </tlLogic>
    <tlLogic id="320621276" type="actuated" programID="0" offset="0">
        <phase duration="33" state="rrgGGgGrr" minDur="5" maxDur="50"/>
        <phase duration="5"  state="rrgGGgrrr"/>
        <phase duration="3"  state="rryyygrrr"/>
        <phase duration="6"  state="rrrrGGrrr" minDur="5" maxDur="50"/>
        <phase duration="3"  state="rrrryyrrr"/>
        <phase duration="32" state="gGGrrrrrG" minDur="5" maxDur="50"/>
        <phase duration="5"  state="gGGrrrrrr"/>
        <phase duration="3"  state="yyyrrrrrr"/>
        <phase duration="5"  state="rrrrrrGGG"/>
        <phase duration="5"  state="rrrrrrrrr"/>
    </tlLogic>
    <tlLogic id="321324256" type="actuated" programID="0" offset="0">
        <phase duration="36" state="GgrrGG"/>
        <phase duration="4"  state="ygrryy"/>
        <phase duration="6"  state="GGrrrr"/>
        <phase duration="4"  state="yyrrrr"/>
        <phase duration="36" state="rrGGGr"/>
        <phase duration="4"  state="rryyyr"/>
    </tlLogic>
    <tlLogic id="321325405" type="actuated" programID="0" offset="0">
        <phase duration="36" state="GgrrGG"/>
        <phase duration="4"  state="ygrryy"/>
        <phase duration="6"  state="GGrrrr"/>
        <phase duration="4"  state="yyrrrr"/>
        <phase duration="36" state="rrGGGr"/>
        <phase duration="4"  state="rryyyr"/>
    </tlLogic>
    <tlLogic id="32564122" type="actuated" programID="0" offset="0">
        <phase duration="37" state="gGGGGgrrrrrG"/>
        <phase duration="5"  state="gGGGGgrrrrrr"/>
        <phase duration="3"  state="yyyyyyrrrrrr"/>
        <phase duration="37" state="GrrrrrggGrGr"/>
        <phase duration="5"  state="GrrrrrggGrrr"/>
        <phase duration="3"  state="yrrrrryyyrrr"/>
        <phase duration="5"  state="rrrrrrrrrGGG"/>
        <phase duration="5"  state="rrrrrrrrrrrr"/>
    </tlLogic>
    <tlLogic id="336359379" type="actuated" programID="0" offset="0">
        <phase duration="30" state="gGrrrrgGrrrrrGrG" minDur="10" maxDur="50"/>
        <phase duration="5"  state="gGrrrrgGrrrrrrrr"/>
        <phase duration="5"  state="yyrrrryyrrrrrrrr"/>
        <phase duration="6"  state="rrGrrrrrGrrrrrrr" minDur="10" maxDur="50"/>
        <phase duration="5"  state="rryrrrrryrrrrrrr"/>
        <phase duration="29" state="rrrgGgrrrgGgGrGr" minDur="5" maxDur="50"/>
        <phase duration="5"  state="rrrgGgrrrgGgrrrr"/>
        <phase duration="5"  state="rrryyyrrryyyrrrr"/>
    </tlLogic>
    <tlLogic id="498468294" type="actuated" programID="0" offset="0">
        <phase duration="42" state="GGgrrrrGGG"/>
        <phase duration="3"  state="yyyrrrryyy"/>
        <phase duration="42" state="rrrGGGGGrr"/>
        <phase duration="3"  state="rrryyyyyrr"/>
    </tlLogic>
    <tlLogic id="7009179660" type="static" programID="0" offset="0">
        <phase duration="74" state="rGGGG"/>
        <phase duration="5"  state="ryyyy"/>
        <phase duration="6"  state="GGrrr"/>
        <phase duration="5"  state="yyrrr"/>
    </tlLogic>
    <tlLogic id="7009179676" type="static" programID="0" offset="0">
        <phase duration="80" state="GGG"/>
        <phase duration="5"  state="yyy"/>
        <phase duration="5"  state="rrr"/>
    </tlLogic>
    <tlLogic id="7850433964" type="static" programID="0" offset="0">
        <phase duration="82" state="GGGG"/>
        <phase duration="3"  state="yyyy"/>
        <phase duration="5"  state="rrrr"/>
    </tlLogic>
    <tlLogic id="89127267" type="actuated" programID="0" offset="0">
        <phase duration="33" state="rrrgGGGGgGrr" minDur="5" maxDur="50"/>
        <phase duration="5"  state="rrrgGGGGgrrr"/>
        <phase duration="3"  state="rrryyyyygrrr"/>
        <phase duration="6"  state="rrrrrrGGGrrr" minDur="5" maxDur="50"/>
        <phase duration="3"  state="rrrrrryyyrrr"/>
        <phase duration="32" state="gGGGrrrrrrrG" minDur="5" maxDur="50"/>
        <phase duration="5"  state="gGGGrrrrrrrr"/>
        <phase duration="3"  state="yyyyrrrrrrrr"/>
        <phase duration="5"  state="rrrrrrrrrGGG"/>
        <phase duration="5"  state="rrrrrrrrrrrr"/>
    </tlLogic>
    <tlLogic id="89129103" type="actuated" programID="0" offset="0">
        <phase duration="37" state="gGGGgrrrrrG"/>
        <phase duration="5"  state="gGGGgrrrrrr"/>
        <phase duration="3"  state="yyyyyrrrrrr"/>
        <phase duration="37" state="GrrrrgGGrGr"/>
        <phase duration="5"  state="GrrrrgGGrrr"/>
        <phase duration="3"  state="yrrrryyyrrr"/>
        <phase duration="5"  state="rrrrrrrrGGG"/>
        <phase duration="5"  state="rrrrrrrrrrr"/>
    </tlLogic>
    <tlLogic id="89129156" type="actuated" programID="0" offset="0">
        <phase duration="28" state="rrrGGgrrrgGGgG"/>
        <phase duration="5"  state="rrrGGgrrrgGGgr"/>
        <phase duration="3"  state="rrryygrrryyygr"/>
        <phase duration="6"  state="rrrrrGrrrrrrGr"/>
        <phase duration="3"  state="rrrrryrrrrrryr"/>
        <phase duration="33" state="GGgrrrGGgrrrrr"/>
        <phase duration="3"  state="yygrrryygrrrrr"/>
        <phase duration="6"  state="rrGrrrrrGrrrrr"/>
        <phase duration="3"  state="rryrrrrryrrrrr"/>
    </tlLogic>
    <tlLogic id="89129168" type="actuated" programID="0" offset="0">
        <phase duration="42" state="rrGGGGg" minDur="5" maxDur="50"/>
        <phase duration="3"  state="rryyyyy"/>
        <phase duration="42" state="GGGrrrr" minDur="5" maxDur="50"/>
        <phase duration="3"  state="yyyrrrr"/>
    </tlLogic>
    <tlLogic id="89170505" type="actuated" programID="0" offset="0">
        <phase duration="33" state="gGgrrrgGgrrrrGrG"/>
        <phase duration="5"  state="gGgrrrgGgrrrrrrr"/>
        <phase duration="3"  state="yygrrryygrrrrrrr"/>
        <phase duration="6"  state="rrGrrrrrGrrrrrrr"/>
        <phase duration="3"  state="rryrrrrryrrrrrrr"/>
        <phase duration="32" state="rrrgGgrrrgGgGrGr"/>
        <phase duration="5"  state="rrrgGgrrrgGgrrrr"/>
        <phase duration="3"  state="rrryyyrrryyyrrrr"/>
    </tlLogic>
    <tlLogic id="89173763" type="actuated" programID="0" offset="0">
        <phase duration="24" state="rrrgGgrrrgGgGrGr" minDur="5" maxDur="50"/>
        <phase duration="5"  state="rrrgGgrrrgGgrrrr"/>
        <phase duration="5"  state="rrryygrrryygrrrr"/>
        <phase duration="6"  state="rrrrrGrrrrrGrrrr" minDur="5" maxDur="50"/>
        <phase duration="5"  state="rrrrryrrrrryrrrr"/>
        <phase duration="24" state="gGrrrrgGgrrrrGrG" minDur="10" maxDur="50"/>
        <phase duration="5"  state="gGrrrrgGgrrrrrrr"/>
        <phase duration="5"  state="yyrrrryygrrrrrrr"/>
        <phase duration="6"  state="rrGrrrrrGrrrrrrr" minDur="10" maxDur="50"/>
        <phase duration="5"  state="rryrrrrryrrrrrrr"/>
    </tlLogic>
    <tlLogic id="89173808" type="actuated" programID="0" offset="0">
        <phase duration="33" state="gGgrrrgGgrrrrGrG"/>
        <phase duration="5"  state="gGgrrrgGgrrrrrrr"/>
        <phase duration="3"  state="yygrrryygrrrrrrr"/>
        <phase duration="6"  state="rrGrrrrrGrrrrrrr"/>
        <phase duration="3"  state="rryrrrrryrrrrrrr"/>
        <phase duration="32" state="rrrgGgrrrgGgGrGr"/>