<?xml version="1.0" encoding="UTF-8"?>

<!-- generated on Mi 10 Nov 2021 14:46:55 CET by Eclipse SUMO netedit Version 1.4.0
<configuration xmlns:xsi="http://www.w3.org/2001/XMLSchema-instance" xsi:noNamespaceSchemaLocation="http://sumo.dlr.de/xsd/netconvertConfiguration.xsd">

    <input>
        <sumo-net-file value="/home/intas/INTAS/InTAS_RealFuture/scenario/ingolstadt.net.xml"/>
    </input>

    <output>
        <output-file value="/home/intas/INTAS/InTAS_RealFuture/scenario/ingolstadt.net.xml"/>
    </output>

    <processing>
        <geometry.min-radius.fix.railways value="false"/>
        <geometry.max-grade.fix value="false"/>
        <offset.disable-normalization value="true"/>
        <lefthand value="false"/>
    </processing>

    <junctions>
        <no-turnarounds value="true"/>
        <junctions.corner-detail value="5"/>
        <junctions.limit-turn-speed value="5.5"/>
        <rectangular-lane-cut value="false"/>
    </junctions>

    <pedestrian>
        <walkingareas value="false"/>
    </pedestrian>

    <netedit>
        <additional-files value="/home/intas/INTAS/InTAS_RealFuture/scenario/InTAS_E1.add.xml"/>
    </netedit>

    <report>
        <aggregate-warnings value="5"/>
    </report>

</configuration>
-->

<additional xmlns:xsi="http://www.w3.org/2001/XMLSchema-instance" xsi:noNamespaceSchemaLocation="http://sumo.dlr.de/xsd/additional_file.xsd">
    <e1Detector id="0012_1" lane="23166741#2_1" pos="125.00" freq="900.00" name="0012" file="InTAS_Detectors_Output.xml" friendlyPos="1"/>
    <e1Detector id="0012_2" lane="23166741#2_2" pos="125.00" freq="900.00" name="0012" file="InTAS_Detectors_Output.xml" friendlyPos="1"/>
    <e1Detector id="0012_3" lane="201201950#1_2" pos="85.00" freq="900.00" name="0012" file="InTAS_Detectors_Output.xml" friendlyPos="1"/>
    <e1Detector id="0012_4" lane="201201950#1_1" pos="85.00" freq="900.00" name="0012" file="InTAS_Detectors_Output.xml" friendlyPos="1"/>
    <e1Detector id="0013_1" lane="201201953#2_1" pos="160.00" freq="900.00" name="0013" file="InTAS_Detectors_Output.xml" friendlyPos="1"/>
    <e1Detector id="0013_2" lane="201201953#2_2" pos="160.00" freq="900.00" name="0013" file="InTAS_Detectors_Output.xml" friendlyPos="1"/>
    <e1Detector id="0013_3" lane="176550249#3_1" pos="185.00" freq="900.00" name="0013" file="InTAS_Detectors_Output.xml" friendlyPos="1"/>
    <e1Detector id="0013_4" lane="176550249#3_2" pos="185.00" freq="900.00" name="0013" file="InTAS_Detectors_Output.xml" friendlyPos="1"/>
    <e1Detector id="0024_1" lane="42745545#0_1" pos="50.00" freq="900.00" name="0024" file="InTAS_Detectors_Output.xml" friendlyPos="1"/>
    <e1Detector id="0026_1" lane="-51244813#5.55_1" pos="50.61" freq="900.00" name="0026" file="InTAS_Detectors_Output.xml" friendlyPos="1"/>
    <e1Detector id="0026_2" lane="51244813#1_1" pos="122.89" freq="900.00" name="0026" file="InTAS_Detectors_Output.xml" friendlyPos="1"/>
    <e1Detector id="0036_1" lane="31342350#1_1" pos="150.43" freq="900.00" name="0036" file="InTAS_Detectors_Output.xml" friendlyPos="1"/>
    <e1Detector id="0036_2" lane="31342350#1_2" pos="150.43" freq="900.00" name="0036" file="InTAS_Detectors_Output.xml" friendlyPos="1"/>
    <e1Detector id="0036_3" lane="4942575#0_1" pos="184.96" freq="900.00" name="0036" file="InTAS_Detectors_Output.xml" friendlyPos="1"/>
    <e1Detector id="0036_4" lane="4942575#0_2" pos="184.96" freq="900.00" name="0036" file="InTAS_Detectors_Output.xml" friendlyPos="1"/>
    <e1Detector id="0048_1" lane="140684000#0_1" pos="2.14" freq="900.00" file="InTAS_Detectors_Output.xml" friendlyPos="1"/>
    <e1Detector id="0048_2" lane="-140684000#1_1" pos="19.97" freq="900.00" file="InTAS_Detectors_Output.xml" friendlyPos="1"/>
    <e1Detector id="1010_1" lane="130996520.58_1" pos="33.00" freq="900.00" name="1010" file="InTAS_Detectors_Output.xml" friendlyPos="1"/>
    <e1Detector id="1010_10" lane="172515814#0_1" pos="32.73" freq="900.00" name="1010" file="InTAS_Detectors_Output.xml" friendlyPos="1"/>
    <e1Detector id="1010_11" lane="172515814#0_2" pos="41.98" freq="900.00" name="1010" file="InTAS_Detectors_Output.xml" friendlyPos="1"/>
    <e1Detector id="1010_12" lane="172515814#0_3" pos="42.19" freq="900.00" name="1010" file="InTAS_Detectors_Output.xml" friendlyPos="1"/>
    <e1Detector id="1010_13" lane="172517198#0_1" pos="55.24" freq="900.00" name="1010" file="InTAS_Detectors_Output.xml" friendlyPos="1"/>
    <e1Detector id="1010_14" lane="172517198#0_2" pos="46.69" freq="900.00" name="1010" file="InTAS_Detectors_Output.xml" friendlyPos="1"/>
    <e1Detector id="1010_15" lane="172517198#0_3" pos="46.80" freq="900.00" name="1010" file="InTAS_Detectors_Output.xml" friendlyPos="1"/>
    <e1Detector id="1010_16" lane="172517198#0_4" pos="55.37" freq="900.00" name="1010" file="InTAS_Detectors_Output.xml" friendlyPos="1"/>
    <e1Detector id="1010_2" lane="130996520.58_2" pos="17.30" freq="900.00" name="1010" file="InTAS_Detectors_Output.xml" friendlyPos="1"/>
    <e1Detector id="1010_3" lane="130996520.58_3" pos="17.42" freq="900.00" name="1010" file="InTAS_Detectors_Output.xml" friendlyPos="1"/>
    <e1Detector id="1010_4" lane="130996520.58_4" pos="25.14" freq="900.00" name="1010" file="InTAS_Detectors_Output.xml" friendlyPos="1"/>
    <e1Detector id="1010_5" lane="201278215_1" pos="0.50" freq="900.00" name="1010" file="InTAS_Detectors_Output.xml" friendlyPos="1"/>
    <e1Detector id="1010_6" lane="172515813_2" pos="20.00" freq="900.00" name="1010" file="InTAS_Detectors_Output.xml" friendlyPos="1"/>
    <e1Detector id="1010_7" lane="172515813_3" pos="20.00" freq="900.00" name="1010" file="InTAS_Detectors_Output.xml" friendlyPos="1"/>
    <e1Detector id="1010_8" lane="356952270_2" pos="19.78" freq="900.00" name="1010" file="InTAS_Detectors_Output.xml" friendlyPos="1"/>
    <e1Detector id="1010_9" lane="356952270_1" pos="19.72" freq="900.00" file="InTAS_Detectors_Output.xml" friendlyPos="1"/>
    <e1Detector id="1011_1" lane="172515812#0_3" pos="37.28" freq="900.00" name="1011" file="InTAS_Detectors_Output.xml" friendlyPos="1"/>
    <e1Detector id="1011_2" lane="172515811#0_1" pos="51.93" freq="900.00" name="1011" file="InTAS_Detectors_Output.xml" friendlyPos="1"/>
    <e1Detector id="1011_4" lane="172515811#0_2" pos="52.01" freq="900.00" name="1011" file="InTAS_Detectors_Output.xml" friendlyPos="1"/>
    <e1Detector id="1011_5" lane="29458640#0_2" pos="43.90" freq="900.00" name="1011" file="InTAS_Detectors_Output.xml" friendlyPos="1"/>
    <e1Detector id="1011_6" lane="29458640#0_3" pos="40.49" freq="900.00" name="1011" file="InTAS_Detectors_Output.xml" friendlyPos="1"/>
    <e1Detector id="1011_7" lane="29458640#0_1" pos="43.96" freq="900.00" name="1011" file="InTAS_Detectors_Output.xml" friendlyPos="1"/>
    <e1Detector id="1012_1" lane="gneE19_1" pos="8.81" freq="900.00" name="1012" file="InTAS_Detectors_Output.xml" friendlyPos="1"/>
    <e1Detector id="1012_2" lane="-33779209#2_1" pos="45.75" freq="900.00" file="InTAS_Detectors_Output.xml" friendlyPos="1"/>
    <e1Detector id="1012_3" lane="174609517#0_1" pos="123.65" freq="900.00" name="1012" file="InTAS_Detectors_Output.xml" friendlyPos="1"/>
    <e1Detector id="1012_4" lane="26334127#5_1" pos="229.90" freq="900.00" name="1012" file="InTAS_Detectors_Output.xml" friendlyPos="1"/>
    <e1Detector id="1012_5" lane="26334127#5_1" pos="211.74" freq="900.00" name="1012" file="InTAS_Detectors_Output.xml" friendlyPos="1"/>
    <e1Detector id="1012_6" lane="-38508400#1_1" pos="7.54" freq="900.00" name="1012" file="InTAS_Detectors_Output.xml" friendlyPos="1"/>
    <e1Detector id="1022_2" lane="32923867#2_3" pos="0.97" freq="900.00" name="1022" file="InTAS_Detectors_Output.xml" friendlyPos="1"/>
    <e1Detector id="1022_3" lane="-32923867#4_1" pos="8.72" freq="900.00" name="1022" file="InTAS_Detectors_Output.xml" friendlyPos="1"/>
    <e1Detector id="1022_4" lane="-32923867#4_2" pos="14.31" freq="900.00" name="1022" file="InTAS_Detectors_Output.xml" friendlyPos="1"/>
    <e1Detector id="1022_5" lane="-32923867#4_3" pos="14.47" freq="900.00" name="1022" file="InTAS_Detectors_Output.xml" friendlyPos="1"/>
    <e1Detector id="1022_6" lane="-32923867#4_3" pos="22.37" freq="900.00" name="1022" file="InTAS_Detectors_Output.xml" friendlyPos="1"/>
    <e1Detector id="1022_7" lane="-26471752#1_1" pos="15.54" freq="900.00" name="1022" file="InTAS_Detectors_Output.xml" friendlyPos="1"/>
    <e1Detector id="1022_8" lane="-26471752#1_2" pos="15.34" freq="900.00" name="1022" file="InTAS_Detectors_Output.xml" friendlyPos="1"/>
    <e1Detector id="1080_1" lane="749560275_0" pos="20.52" freq="900.00" name="1080" file="InTAS_Detectors_Output.xml" friendlyPos="1"/>
    <e1Detector id="1080_2" lane="749560275_1" pos="24.33" freq="900.00" name="1080" file="InTAS_Detectors_Output.xml" friendlyPos="1"/>
    <e1Detector id="1080_3" lane="749560263#0_0" pos="11.90" freq="900.00" name="1080" file="InTAS_Detectors_Output.xml" friendlyPos="1"/>
    <e1Detector id="1080_4" lane="749560263#0_1" pos="12.09" freq="900.00" name="1080" file="InTAS_Detectors_Output.xml" friendlyPos="1"/>
    <e1Detector id="1080_5" lane="-749560274#2_1" pos="14.51" freq="900.00" name="1080" file="InTAS_Detectors_Output.xml" friendlyPos="1"/>
    <e1Detector id="2010_1" lane="-24537982#1_1" pos="58.11" freq="900.00" name="2010" file="InTAS_Detectors_Output.xml" friendlyPos="1"/>
    <e1Detector id="2010_10" lane="24972185#2.111_2" pos="355.47" freq="900.00" name="2010" file="InTAS_Detectors_Output.xml" friendlyPos="1"/>
    <e1Detector id="2010_2" lane="-24537982#1_2" pos="57.99" freq="900.00" name="2010" file="InTAS_Detectors_Output.xml" friendlyPos="1"/>
    <e1Detector id="2010_3" lane="-32009683#1_1" pos="166.07" freq="900.00" name="2010" file="InTAS_Detectors_Output.xml" friendlyPos="1"/>
    <e1Detector id="2010_4" lane="-32009683#1_2" pos="166.33" freq="900.00" name="2010" file="InTAS_Detectors_Output.xml" friendlyPos="1"/>
    <e1Detector id="2010_7" lane="31343367#0_1" pos="12.23" freq="900.00" name="2010" file="InTAS_Detectors_Output.xml" friendlyPos="1"/>
    <e1Detector id="2010_8" lane="31343367#0_2" pos="12.41" freq="900.00" name="2010" file="InTAS_Detectors_Output.xml" friendlyPos="1"/>
    <e1Detector id="2010_9" lane="24972185#2.111_1" pos="355.35" freq="900.00" name="2010" file="InTAS_Detectors_Output.xml" friendlyPos="1"/>
    <e1Detector id="3010_1" lane="-24977590#1_1" pos="13.93" freq="900.00" name="3010" file="InTAS_Detectors_Output.xml" friendlyPos="1"/>
    <e1Detector id="3010_10" lane="-24977590#1_3" pos="22.42" freq="900.00" name="3010" file="InTAS_Detectors_Output.xml" friendlyPos="1"/>
    <e1Detector id="3010_2" lane="-24977590#1_2" pos="13.87" freq="900.00" name="3010" file="InTAS_Detectors_Output.xml" friendlyPos="1"/>
    <e1Detector id="3010_3" lane="380273341_1" pos="13.46" freq="900.00" name="3010" file="InTAS_Detectors_Output.xml" friendlyPos="1"/>
    <e1Detector id="3010_4" lane="380273341_2" pos="13.47" freq="900.00" name="3010" file="InTAS_Detectors_Output.xml" friendlyPos="1"/>
    <e1Detector id="3010_5" lane="233673425#0_1" pos="22.30" freq="900.00" name="3010" file="InTAS_Detectors_Output.xml" friendlyPos="1"/>
    <e1Detector id="3010_6" lane="233673425#0_2" pos="28.47" freq="900.00" name="3010" file="InTAS_Detectors_Output.xml" friendlyPos="1"/>
    <e1Detector id="3010_7" lane="266565302_1" pos="50.69" freq="900.00" name="3010" file="InTAS_Detectors_Output.xml" friendlyPos="1"/>
    <e1Detector id="3010_8" lane="266565302_2" pos="50.64" freq="900.00" name="3010" file="InTAS_Detectors_Output.xml" friendlyPos="1"/>
    <e1Detector id="3021_1" lane="266567306_1" pos="22.18" freq="900.00" name="3021" file="InTAS_Detectors_Output.xml" friendlyPos="1"/>
    <e1Detector id="3021_10" lane="64464399#1_2" pos="2.00" freq="900.00" name="3021" file="InTAS_Detectors_Output.xml" friendlyPos="1"/>
    <e1Detector id="3021_11" lane="-64464377#3_1" pos="193.41" freq="900.00" name="3021" file="InTAS_Detectors_Output.xml" friendlyPos="1"/>
    <e1Detector id="3021_2" lane="266567306_2" pos="21.98" freq="900.00" name="3021" file="InTAS_Detectors_Output.xml" friendlyPos="1"/>
    <e1Detector id="3021_3" lane="266567306_3" pos="30.97" freq="900.00" name="3021" file="InTAS_Detectors_Output.xml" friendlyPos="1"/>
    <e1Detector id="3021_4" lane="64464397#0_1" pos="5.31" freq="900.00" name="3021" file="InTAS_Detectors_Output.xml" friendlyPos="1"/>
    <e1Detector id="3021_5" lane="30417892_1" pos="8.59" freq="900.00" name="3021" file="InTAS_Detectors_Output.xml" friendlyPos="1"/>
    <e1Detector id="3021_6" lane="30417892_2" pos="7.74" freq="900.00" name="3021" file="InTAS_Detectors_Output.xml" friendlyPos="1"/>
    <e1Detector id="3021_7" lane="32009826#0_1" pos="3.37" freq="900.00" name="3021" file="InTAS_Detectors_Output.xml" friendlyPos="1"/>
    <e1Detector id="3021_8" lane="32009826#0_2" pos="3.62" freq="900.00" name="3021" file="InTAS_Detectors_Output.xml" friendlyPos="1"/>
    <e1Detector id="3021_9" lane="64464399#1_1" pos="5.96" freq="900.00" name="3021" file="InTAS_Detectors_Output.xml" friendlyPos="1"/>
    <e1Detector id="3022_1" lane="323248156#0_1" pos="15.00" freq="900.00" name="3022" file="InTAS_Detectors_Output.xml" friendlyPos="1"/>
    <e1Detector id="3022_10" lane="266567304#0_3" pos="40.38" freq="900.00" name="3022" file="InTAS_Detectors_Output.xml" friendlyPos="1"/>
    <e1Detector id="3022_11" lane="266567304#0_3" pos="51.04" freq="300.00" name="3022" file="InTAS_Detectors_Output.xml" friendlyPos="1"/>
    <e1Detector id="3022_2" lane="323248156#0_2" pos="15.00" freq="900.00" name="3022" file="InTAS_Detectors_Output.xml" friendlyPos="1"/>
    <e1Detector id="3022_3" lane="266567303_1" pos="11.53" freq="900.00" name="3022" file="InTAS_Detectors_Output.xml" friendlyPos="1"/>
    <e1Detector id="3022_4" lane="266567303_2" pos="11.52" freq="900.00" name="3022" file="InTAS_Detectors_Output.xml" friendlyPos="1"/>
    <e1Detector id="3022_5" lane="266567294#0_3" pos="8.00" freq="900.00" name="3022" file="InTAS_Detectors_Output.xml" friendlyPos="1"/>
    <e1Detector id="3022_6" lane="323248169#0_0" pos="3.93" freq="900.00" name="3022" file="InTAS_Detectors_Output.xml" friendlyPos="1"/>
    <e1Detector id="3022_8" lane="266567304#0_1" pos="39.79" freq="900.00" name="3022" file="InTAS_Detectors_Output.xml" friendlyPos="1"/>
    <e1Detector id="3022_9" lane="266567304#0_2" pos="39.89" freq="900.00" name="3022" file="InTAS_Detectors_Output.xml" friendlyPos="1"/>
    <e1Detector id="3030_2" lane="137463475#0_2" pos="171.41" freq="900.00" name="3030" file="InTAS_Detectors_Output.xml" friendlyPos="1"/>
    <e1Detector id="3030_3" lane="-115082348#2_1" pos="150.68" freq="900.00" name="3030" file="InTAS_Detectors_Output.xml" friendlyPos="1"/>
    <e1Detector id="3030_4" lane="-28132014#2_1" pos="132.55" freq="900.00" name="3030" file="InTAS_Detectors_Output.xml" friendlyPos="1"/>
    <e1Detector id="3030_5" lane="-28132014#2_2" pos="132.49" freq="900.00" name="3030" file="InTAS_Detectors_Output.xml" friendlyPos="1"/>
    <e1Detector id="3030_6" lane="23009002#0_1" pos="129.24" freq="900.00" name="3030" file="InTAS_Detectors_Output.xml" friendlyPos="1"/>
    <e1Detector id="3030_7" lane="23009002#0_2" pos="127.45" freq="900.00" name="3030" file="InTAS_Detectors_Output.xml" friendlyPos="1"/>
    <e1Detector id="3030_8" lane="110435734_1" pos="148.61" freq="900.00" name="3030" file="InTAS_Detectors_Output.xml" friendlyPos="1"/>
    <e1Detector id="3040_10" lane="257907860#1.168_3" pos="67.83" freq="900.00" name="3040" file="InTAS_Detectors_Output.xml" friendlyPos="1"/>
    <e1Detector id="3040_11" lane="137463477#0_1" pos="39.03" freq="900.00" name="3040" file="InTAS_Detectors_Output.xml" friendlyPos="1"/>
    <e1Detector id="3040_12" lane="137463477#0_2" pos="38.85" freq="900.00" name="3040" file="InTAS_Detectors_Output.xml" friendlyPos="1"/>
    <e1Detector id="3040_13" lane="137463477#0_3" pos="49.27" freq="900.00" name="3040" file="InTAS_Detectors_Output.xml" friendlyPos="1"/>
    <e1Detector id="3040_2" lane="31342064#1.83_1" pos="61.56" freq="900.00" name="3040" file="InTAS_Detectors_Output.xml" friendlyPos="1"/>
    <e1Detector id="3040_3" lane="31342064#1.83_2" pos="61.64" freq="900.00" name="3040" file="InTAS_Detectors_Output.xml" friendlyPos="1"/>
    <e1Detector id="3040_4" lane="31342064#1.83_3" pos="69.20" freq="900.00" name="3040" file="InTAS_Detectors_Output.xml" friendlyPos="1"/>
    <e1Detector id="3040_5" lane="25796398#0_1" pos="72.82" freq="900.00" name="3040" file="InTAS_Detectors_Output.xml" friendlyPos="1"/>
    <e1Detector id="3040_6" lane="25796398#0_2" pos="72.87" freq="900.00" name="3040" file="InTAS_Detectors_Output.xml" friendlyPos="1"/>
    <e1Detector id="3040_7" lane="25796398#0_3" pos="79.75" freq="900.00" name="3040" file="InTAS_Detectors_Output.xml" friendlyPos="1"/>
    <e1Detector id="3040_8" lane="257907860#1.168_1" pos="51.97" freq="900.00" name="3040" file="InTAS_Detectors_Output.xml" friendlyPos="1"/>
    <e1Detector id="3040_9" lane="257907860#1.168_2" pos="52.24" freq="900.00" name="3040" file="InTAS_Detectors_Output.xml" friendlyPos="1"/>
    <e1Detector id="3060_1" lane="202070429#3_1" pos="56.91" freq="900.00" name="3060" file="InTAS_Detectors_Output.xml" friendlyPos="1"/>
    <e1Detector id="3060_10" lane="202070429#4_1" pos="42.34" freq="900.00" name="3060" file="InTAS_Detectors_Output.xml" friendlyPos="1"/>
    <e1Detector id="3060_2" lane="202070429#3_2" pos="57.15" freq="900.00" name="3060" file="InTAS_Detectors_Output.xml" friendlyPos="1"/>
    <e1Detector id="3060_3" lane="175761129#1_1" pos="115.92" freq="900.00" name="3060" file="InTAS_Detectors_Output.xml" friendlyPos="1"/>
    <e1Detector id="3060_4" lane="-202070429#5_1" pos="251.01" freq="900.00" name="3060" file="InTAS_Detectors_Output.xml" friendlyPos="1"/>
    <e1Detector id="3060_5" lane="-202070429#5_2" pos="251.04" freq="900.00" name="3060" file="InTAS_Detectors_Output.xml" friendlyPos="1"/>
    <e1Detector id="3060_6" lane="-153692837#0_1" pos="47.64" freq="900.00" name="3060" file="InTAS_Detectors_Output.xml" friendlyPos="1"/>
    <e1Detector id="3060_7" lane="-202070429#4_1" pos="50.11" freq="900.00" name="3060" file="InTAS_Detectors_Output.xml" friendlyPos="1"/>
    <e1Detector id="3060_8" lane="-202070429#4_2" pos="50.21" freq="900.00" name="3060" file="InTAS_Detectors_Output.xml" friendlyPos="1"/>
    <e1Detector id="3060_9" lane="202070429#4_2" pos="42.05" freq="900.00" name="3060" file="InTAS_Detectors_Output.xml" friendlyPos="1"/>
    <e1Detector id="3080_1" lane="-149045269#4_1" pos="0.91" freq="900.00" name="3080" file="InTAS_Detectors_Output.xml" friendlyPos="1"/>
    <e1Detector id="3080_2" lane="202070429#7_1" pos="7.42" freq="900.00" name="3080" file="InTAS_Detectors_Output.xml" friendlyPos="1"/>
    <e1Detector id="3080_3" lane="202070429#7_2" pos="7.27" freq="900.00" name="3080" file="InTAS_Detectors_Output.xml" friendlyPos="1"/>
    <e1Detector id="3080_4" lane="-201789794#2_1" pos="64.62" freq="900.00" name="3080" file="InTAS_Detectors_Output.xml" friendlyPos="1"/>
    <e1Detector id="3080_5" lane="-201789794#2_2" pos="64.41" freq="900.00" name="3080" file="InTAS_Detectors_Output.xml" friendlyPos="1"/>
    <e1Detector id="3090_1" lane="30399322#3.66_2" pos="33.64" freq="900.00" name="3090" file="InTAS_Detectors_Output.xml" friendlyPos="1"/>
    <e1Detector id="3090_10" lane="152077572#2.79_2" pos="20.64" freq="900.00" name="3090" file="InTAS_Detectors_Output.xml" friendlyPos="1"/>
    <e1Detector id="3090_11" lane="152077572#2.79_3" pos="20.78" freq="900.00" name="3090" file="InTAS_Detectors_Output.xml" friendlyPos="1"/>
    <e1Detector id="3090_2" lane="30399322#3.66_3" pos="33.39" freq="900.00" name="3090" file="InTAS_Detectors_Output.xml" friendlyPos="1"/>
    <e1Detector id="3090_3" lane="30399322#3.66_4" pos="50.89" freq="900.00" name="3090" file="InTAS_Detectors_Output.xml" friendlyPos="1"/>
    <e1Detector id="3090_4" lane="-542727960_1" pos="0.70" freq="900.00" name="3090" file="InTAS_Detectors_Output.xml" friendlyPos="1"/>
    <e1Detector id="3090_5" lane="-542727960_2" pos="0.61" freq="900.00" name="3090" file="InTAS_Detectors_Output.xml" friendlyPos="1"/>
    <e1Detector id="3090_6" lane="31342349#3_1" pos="60.94" freq="900.00" name="3090" file="InTAS_Detectors_Output.xml" friendlyPos="1"/>
    <e1Detector id="3090_7" lane="31342349#3_2" pos="60.64" freq="900.00" name="3090" file="InTAS_Detectors_Output.xml" friendlyPos="1"/>
    <e1Detector id="3090_9" lane="152077572#2.79_1" pos="20.42" freq="900.00" name="3090" file="InTAS_Detectors_Output.xml" friendlyPos="1"/>
    <e1Detector id="3091_1" lane="30399316#0.52_1" pos="5.33" freq="900.00" name="3091" file="InTAS_Detectors_Output.xml" friendlyPos="1"/>
    <e1Detector id="3091_2" lane="30399316#0.52_2" pos="5.19" freq="900.00" name="3091" file="InTAS_Detectors_Output.xml" friendlyPos="1"/>
    <e1Detector id="3091_3" lane="-25344437#5_1" pos="331.18" freq="900.00" name="3091" file="InTAS_Detectors_Output.xml" friendlyPos="1"/>
    <e1Detector id="3091_4" lane="-30399316#2_1" pos="138.64" freq="900.00" name="3091" file="InTAS_Detectors_Output.xml" friendlyPos="1"/>
    <e1Detector id="3100_1" lane="32203023#2.134_0" pos="9.96" freq="900.00" name="3100" file="InTAS_Detectors_Output.xml" friendlyPos="1"/>
    <e1Detector id="3100_2" lane="32203023#2.134_1" pos="10.03" freq="900.00" name="3100" file="InTAS_Detectors_Output.xml" friendlyPos="1"/>
    <e1Detector id="3100_3" lane="32203023#2.134_2" pos="25.18" freq="900.00" name="3100" file="InTAS_Detectors_Output.xml" friendlyPos="1"/>
    <e1Detector id="3100_4" lane="-23009600#1_1" pos="20.49" freq="900.00" name="3100" file="InTAS_Detectors_Output.xml" friendlyPos="1"/>
    <e1Detector id="3100_5" lane="4942575#2_1" pos="277.35" freq="900.00" name="3100" file="InTAS_Detectors_Output.xml" friendlyPos="1"/>
    <e1Detector id="3100_6" lane="4942575#2_2" pos="277.29" freq="900.00" name="3100" file="InTAS_Detectors_Output.xml" friendlyPos="1"/>
    <e1Detector id="3100_7" lane="-31342351#1_1" pos="8.55" freq="900.00" name="3100" file="InTAS_Detectors_Output.xml" friendlyPos="1"/>
    <e1Detector id="3110_1" lane="31342350#2.130_1" pos="60.03" freq="900.00" name="3110" file="InTAS_Detectors_Output.xml" friendlyPos="1"/>
    <e1Detector id="3110_10" lane="33280103#4.68_2" pos="27.07" freq="900.00" name="3110" file="InTAS_Detectors_Output.xml" friendlyPos="1"/>
    <e1Detector id="3110_11" lane="33280103#4.68_3" pos="27.38" freq="900.00" name="3110" file="InTAS_Detectors_Output.xml" friendlyPos="1"/>
    <e1Detector id="3110_2" lane="31342350#2.130_2" pos="60.34" freq="900.00" name="3110" file="InTAS_Detectors_Output.xml" friendlyPos="1"/>
    <e1Detector id="3110_3" lane="31342350#2.130_3" pos="60.48" freq="900.00" name="3110" file="InTAS_Detectors_Output.xml" friendlyPos="1"/>
    <e1Detector id="3110_4" lane="-97304242#1_1" pos="15.66" freq="900.00" name="3110" file="InTAS_Detectors_Output.xml" friendlyPos="1"/>
    <e1Detector id="3110_5" lane="-97304242#1_2" pos="15.58" freq="900.00" name="3110" file="InTAS_Detectors_Output.xml" friendlyPos="1"/>
    <e1Detector id="3110_6" lane="391029008#1.77_2" pos="43.65" freq="900.00" name="3110" file="InTAS_Detectors_Output.xml" friendlyPos="1"/>
    <e1Detector id="3110_7" lane="391029008#1.77_3" pos="43.73" freq="900.00" name="3110" file="InTAS_Detectors_Output.xml" friendlyPos="1"/>
    <e1Detector id="3110_8" lane="391029008#1.77_4" pos="43.66" freq="900.00" name="3110" file="InTAS_Detectors_Output.xml" friendlyPos="1"/>
    <e1Detector id="3110_9" lane="33280103#4.68_1" pos="27.19" freq="900.00" name="3110" file="InTAS_Detectors_Output.xml" friendlyPos="1"/>
    <e1Detector id="3120_1" lane="266507550_1" pos="52.27" freq="900.00" name="3120" file="InTAS_Detectors_Output.xml" friendlyPos="1"/>
    <e1Detector id="3120_10" lane="201789796#0.31_2" pos="4.53" freq="900.00" name="3120" file="InTAS_Detectors_Output.xml" friendlyPos="1"/>
    <e1Detector id="3120_2" lane="266507550_2" pos="52.04" freq="900.00" name="3120" file="InTAS_Detectors_Output.xml" friendlyPos="1"/>
    <e1Detector id="3120_3" lane="266507550_3" pos="69.21" freq="900.00" name="3120" file="InTAS_Detectors_Output.xml" friendlyPos="1"/>
    <e1Detector id="3120_4" lane="-36291830_1" pos="73.16" freq="900.00" name="3120" file="InTAS_Detectors_Output.xml" friendlyPos="1"/>
    <e1Detector id="3120_5" lane="-36291830_1" pos="69.35" freq="900.00" name="3120" file="InTAS_Detectors_Output.xml" friendlyPos="1"/>
    <e1Detector id="3120_6" lane="266507547_1" pos="23.45" freq="900.00" name="3120" file="InTAS_Detectors_Output.xml" friendlyPos="1"/>
    <e1Detector id="3120_7" lane="266507547_2" pos="22.98" freq="900.00" name="3120" file="InTAS_Detectors_Output.xml" friendlyPos="1"/>
    <e1Detector id="3120_8" lane="266507547_3" pos="41.96" freq="900.00" name="3120" file="InTAS_Detectors_Output.xml" friendlyPos="1"/>
    <e1Detector id="3120_9" lane="201789796#0.31_1" pos="4.18" freq="900.00" name="3120" file="InTAS_Detectors_Output.xml" friendlyPos="1"/>
    <e1Detector id="3130_1" lane="266507548_1" pos="11.39" freq="900.00" name="3130" file="InTAS_Detectors_Output.xml" friendlyPos="1"/>
    <e1Detector id="3130_2" lane="266507548_2" pos="11.54" freq="900.00" name="3130" file="InTAS_Detectors_Output.xml" friendlyPos="1"/>
    <e1Detector id="3130_3" lane="266507548_3" pos="38.16" freq="900.00" name="3130" file="InTAS_Detectors_Output.xml" friendlyPos="1"/>
    <e1Detector id="3130_4" lane="48395120#0_1" pos="4.68" freq="900.00" name="3130" file="InTAS_Detectors_Output.xml" friendlyPos="1"/>
    <e1Detector id="3130_5" lane="48395120#0_2" pos="4.71" freq="900.00" name="3130" file="InTAS_Detectors_Output.xml" friendlyPos="1"/>
    <e1Detector id="3130_6" lane="39704919_1" pos="3.86" freq="900.00" name="3130" file="InTAS_Detectors_Output.xml" friendlyPos="1"/>
    <e1Detector id="3130_7" lane="39704919_2" pos="3.73" freq="900.00" name="3130" file="InTAS_Detectors_Output.xml" friendlyPos="1"/>
    <e1Detector id="3130_8" lane="195073413_0" pos="79.17" freq="900.00" name="3130" file="InTAS_Detectors_Output.xml" friendlyPos="1"/>
    <e1Detector id="3130_9" lane="195073413_0" pos="2.70" freq="900.00" name="3130" file="InTAS_Detectors_Output.xml" friendlyPos="1"/>
    <e1Detector id="3140_1" lane="-31021477#2_1" pos="274.13" freq="900.00" name="3140" file="InTAS_Detectors_Output.xml" friendlyPos="1"/>
    <e1Detector id="3140_2" lane="32021365#3_1" pos="29.16" freq="900.00" name="3140" file="InTAS_Detectors_Output.xml" friendlyPos="1"/>
    <e1Detector id="3140_3" lane="27196044#6_1" pos="175.98" freq="900.00" name="3140" file="InTAS_Detectors_Output.xml" friendlyPos="1"/>
    <e1Detector id="3140_4" lane="25638761#3_1" pos="71.01" freq="900.00" name="3140" file="InTAS_Detectors_Output.xml" friendlyPos="1"/>
    <e1Detector id="3150_1" lane="151167747.23_1" pos="74.56" freq="900.00" name="3150" file="InTAS_Detectors_Output.xml" friendlyPos="1"/>
    <e1Detector id="3150_10" lane="-26180725#2_1" pos="232.36" freq="900.00" name="3150" file="InTAS_Detectors_Output.xml" friendlyPos="1"/>
    <e1Detector id="3150_11" lane="26180725#0_1" pos="102.57" freq="900.00" name="3150" file="InTAS_Detectors_Output.xml" friendlyPos="1"/>
    <e1Detector id="3150_2" lane="151167747.23_2" pos="87.04" freq="900.00" name="3150" file="InTAS_Detectors_Output.xml" friendlyPos="1"/>
    <e1Detector id="3150_3" lane="151167747.23_3" pos="86.94" freq="900.00" name="3150" file="InTAS_Detectors_Output.xml" friendlyPos="1"/>
    <e1Detector id="3150_4" lane="266507542_0" pos="13.80" freq="900.00" name="3150" file="InTAS_Detectors_Output.xml" friendlyPos="1"/>
    <e1Detector id="3150_5" lane="266507542_1" pos="13.45" freq="900.00" name="3150" file="InTAS_Detectors_Output.xml" friendlyPos="1"/>
    <e1Detector id="3150_6" lane="266507542_0" pos="4.87" freq="900.00" name="3150" file="InTAS_Detectors_Output.xml" friendlyPos="1"/>
    <e1Detector id="3150_7" lane="266507555_1" pos="48.77" freq="900.00" name="3150" file="InTAS_Detectors_Output.xml" friendlyPos="1"/>
    <e1Detector id="3150_8" lane="266507555_2" pos="49.05" freq="900.00" name="3150" file="InTAS_Detectors_Output.xml" friendlyPos="1"/>
    <e1Detector id="3150_9" lane="266507554_2" pos="2.97" freq="900.00" name="3150" file="InTAS_Detectors_Output.xml" friendlyPos="1"/>
    <e1Detector id="3160_1" lane="41425835.236_1" pos="24.03" freq="900.00" name="3160" file="InTAS_Detectors_Output.xml" friendlyPos="1"/>
    <e1Detector id="3160_2" lane="41425835.236_2" pos="23.96" freq="900.00" name="3160" file="InTAS_Detectors_Output.xml" friendlyPos="1"/>
    <e1Detector id="3160_3" lane="41425835.236_3" pos="30.16" freq="900.00" name="3160" file="InTAS_Detectors_Output.xml" friendlyPos="1"/>
    <e1Detector id="3160_4" lane="-4058127#1_1" pos="22.82" freq="900.00" name="3160" file="InTAS_Detectors_Output.xml" friendlyPos="1"/>
    <e1Detector id="3160_5" lane="-4058127#1_2" pos="22.79" freq="900.00" name="3160" file="InTAS_Detectors_Output.xml" friendlyPos="1"/>
    <e1Detector id="3160_6" lane="266507557#1_1" pos="77.77" freq="900.00" name="3160" file="InTAS_Detectors_Output.xml" friendlyPos="1"/>
    <e1Detector id="3160_7" lane="266507557#1_2" pos="77.79" freq="900.00" name="3160" file="InTAS_Detectors_Output.xml" friendlyPos="1"/>
    <e1Detector id="3180_1" lane="391029009#0.69_1" pos="59.23" freq="900.00" name="3180" file="InTAS_Detectors_Output.xml" friendlyPos="1"/>
    <e1Detector id="3180_2" lane="391029009#0.69_2" pos="51.64" freq="900.00" name="3180" file="InTAS_Detectors_Output.xml" friendlyPos="1"/>
    <e1Detector id="3180_3" lane="391029009#0.69_3" pos="51.64" freq="900.00" name="3180" file="InTAS_Detectors_Output.xml" friendlyPos="1"/>
    <e1Detector id="3180_4" lane="542650763#1.78_1" pos="37.91" freq="900.00" name="3180" file="InTAS_Detectors_Output.xml" friendlyPos="1"/>