<?xml version="1.0" encoding="UTF-8"?>

<!-- generated on 2022-06-27 17:06:06 by Eclipse SUMO netconvert Version 1.12.0
<configuration xmlns:xsi="http://www.w3.org/2001/XMLSchema-instance" xsi:noNamespaceSchemaLocation="http://sumo.dlr.de/xsd/netconvertConfiguration.xsd">

    <input>
        <sumo-net-file value="/home/lobo/Repository/RealFuture_repo/InTAS_RealFuture/scenario/InTAS.net.xml"/>
    </input>

    <output>
        <plain-output-prefix value="/home/lobo/Repository/RealFuture_repo/InTAS_RealFuture/scenario/InTAS"/>
    </output>

    <processing>
        <geometry.min-radius.fix.railways value="false"/>
        <geometry.max-grade.fix value="false"/>
        <offset.disable-normalization value="true"/>
        <roundabouts.guess value="false"/>
        <lefthand value="false"/>
    </processing>

    <junctions>
        <no-turnarounds value="true"/>
        <junctions.corner-detail value="5"/>
        <junctions.limit-turn-speed value="5.5"/>
        <rectangular-lane-cut value="false"/>
    </junctions>

    <pedestrian>
        <walkingareas value="false"/>
    </pedestrian>

    <report>
        <aggregate-warnings value="5"/>
    </report>

</configuration>
-->

<nodes version="1.9" xmlns:xsi="http://www.w3.org/2001/XMLSchema-instance" xsi:noNamespaceSchemaLocation="http://sumo.dlr.de/xsd/nodes_file.xsd">
    <location netOffset="-464198.88,-4952821.58" convBoundary="209535.70,446612.64,223119.88,457704.79" origBoundary="8.520000,43.620000,29.770000,49.030000" projParameter="+proj=utm +zone=32 +ellps=WGS84 +datum=WGS84 +units=m +no_defs"/>

    <node id="1014912207" x="217801.42" y="451831.37" type="dead_end"/>
    <node id="1025587626" x="214240.13" y="450982.51" type="priority"/>
    <node id="1031988583" x="213646.44" y="451605.60" type="priority"/>
    <node id="1041665529" x="212582.46" y="451332.22" type="priority"/>
    <node id="1051308709" x="215079.64" y="451489.62" type="priority"/>
    <node id="1066801369" x="214998.08" y="453013.87" type="priority"/>
    <node id="1079366449" x="211691.31" y="450649.35" type="right_before_left"/>
    <node id="1079366500" x="213384.52" y="450777.35" type="priority"/>
    <node id="1079366689" x="213416.82" y="450745.98" type="priority"/>
    <node id="1079366740" x="211683.27" y="450637.25" type="right_before_left"/>
    <node id="1079587068" x="210356.52" y="450850.81" type="priority"/>
    <node id="1079587113" x="211663.68" y="450496.71" type="priority"/>
    <node id="1082831889" x="212060.34" y="451566.87" type="priority"/>
    <node id="1090871076" x="212266.25" y="454709.42" type="priority"/>
    <node id="1093764287" x="217121.23" y="448428.80" type="dead_end"/>
    <node id="1137585389" x="212007.83" y="452669.03" type="priority"/>
    <node id="1137585395" x="212060.38" y="452807.52" type="priority"/>
    <node id="1144193355" x="216526.23" y="450384.88" type="priority"/>
    <node id="1145500194" x="216202.55" y="452996.83" type="priority"/>
    <node id="1165795004" x="210392.59" y="454089.97" type="priority"/>
    <node id="1168659850" x="213556.44" y="451204.35" type="priority"/>
    <node id="1174664088" x="215611.85" y="449405.18" type="priority"/>
    <node id="1174664175" x="215442.33" y="449359.34" type="priority"/>
    <node id="1175041963" x="215758.24" y="448809.21" type="priority"/>
    <node id="1193967973" x="214259.09" y="451829.43" type="priority"/>
    <node id="1195228713" x="213375.59" y="451316.03" type="priority"/>
    <node id="1195228772" x="213048.13" y="451303.73" type="priority"/>
    <node id="1196936324" x="214019.77" y="451137.07" type="priority"/>
    <node id="1196936357" x="213997.16" y="451110.29" type="priority"/>
    <node id="1197035348" x="214107.87" y="450405.04" type="dead_end"/>
    <node id="1197458660" x="215056.61" y="450263.81" type="priority"/>
    <node id="1200363932" x="212993.73" y="451609.62" type="priority"/>
    <node id="1200363969" x="212989.38" y="451522.35" type="priority"/>
    <node id="1200363973" x="213001.95" y="451493.45" type="priority"/>
    <node id="1205464844" x="213399.22" y="452105.64" type="priority"/>
    <node id="1211774688" x="210764.23" y="452470.19" type="priority"/>
    <node id="1211777284" x="210812.10" y="452508.75" type="priority"/>
    <node id="1223385992" x="210958.68" y="453122.97" type="priority"/>
    <node id="1223385994" x="210841.94" y="453171.08" type="priority"/>
    <node id="1234714136" x="210616.05" y="451093.60" type="priority"/>
    <node id="1242175752" x="212450.35" y="453860.90" type="priority"/>
    <node id="1247333887" x="210703.44" y="454026.90" type="priority"/>
    <node id="1253186990" x="211172.37" y="452006.87" type="priority"/>
    <node id="1253187031" x="211077.76" y="451991.24" type="priority"/>
    <node id="1261109188" x="214969.84" y="451874.61" type="priority"/>
    <node id="1261109191" x="215003.77" y="451870.82" type="priority"/>
    <node id="1263958317" x="210477.39" y="452196.17" type="priority"/>
    <node id="1263958347" x="210495.83" y="452215.89" type="priority"/>
    <node id="1263958377" x="210610.58" y="452058.72" type="priority"/>
    <node id="1263958452" x="210476.82" y="452215.33" type="priority"/>
    <node id="1274337864" x="212884.78" y="452641.16" type="dead_end"/>
    <node id="1282770564" x="215112.05" y="454621.41" type="dead_end"/>
    <node id="1282770595" x="214949.42" y="454719.37" type="dead_end"/>
    <node id="1282770644" x="214818.20" y="454153.70" type="priority"/>
    <node id="1282776686" x="215020.17" y="454739.69" type="right_before_left"/>
    <node id="1287697789" x="212663.02" y="448763.35" type="priority"/>
    <node id="1287697828" x="212650.90" y="448576.63" type="priority"/>
    <node id="1295323763" x="210259.59" y="452532.64" type="priority"/>
    <node id="1295323766" x="210204.56" y="452476.68" type="priority"/>
    <node id="1296164208" x="213138.91" y="449777.90" type="dead_end"/>
    <node id="1296164461" x="213037.65" y="449794.99" type="priority"/>
    <node id="1307952714" x="215526.72" y="450565.40" type="priority"/>
    <node id="1307952716" x="215386.02" y="451100.48" type="priority"/>
    <node id="1307952721" x="215508.00" y="451039.49" type="priority"/>
    <node id="1307952723" x="215619.70" y="450984.75" type="priority"/>
    <node id="1307952732" x="215651.38" y="450979.29" type="priority"/>
    <node id="1307952742" x="215672.96" y="450986.47" type="priority"/>
    <node id="1307952746" x="215522.01" y="450961.37" type="dead_end"/>
    <node id="1307952747" x="215657.02" y="450850.93" type="priority"/>
    <node id="1307952754" x="215572.25" y="451007.54" type="priority"/>
    <node id="1307952756" x="215742.99" y="450930.59" type="dead_end"/>
    <node id="1307952772" x="215763.49" y="451161.51" type="priority"/>
    <node id="1307952775" x="215430.05" y="450505.13" type="priority">
        <param key="buffer_stop" value="true"/>
    </node>
    <node id="1307952790" x="215539.56" y="451023.91" type="priority"/>
    <node id="1312144016" x="212790.29" y="450026.59" type="priority"/>
    <node id="1312153316" x="212786.19" y="450037.53" type="priority"/>
    <node id="1315532829" x="215201.73" y="452233.95" type="priority"/>
    <node id="1315532845" x="214458.45" y="449873.88" type="priority"/>
    <node id="1315532866" x="215115.73" y="452159.72" type="priority"/>
    <node id="1328156417" x="215319.40" y="450893.57" type="right_before_left"/>
    <node id="1328156421" x="215452.74" y="450607.44" type="priority"/>
    <node id="1328156485" x="215402.29" y="450521.44" type="right_before_left"/>
    <node id="1328156536" x="215300.28" y="450696.01" type="priority"/>
    <node id="1328156675" x="215167.05" y="450625.03" type="priority"/>
    <node id="1331204959" x="212954.11" y="451613.82" type="priority"/>
    <node id="1331204963" x="212965.60" y="451626.45" type="priority"/>
    <node id="1333660277" x="216114.92" y="451467.26" type="priority"/>
    <node id="1346892600" x="210997.16" y="453835.69" type="priority"/>
    <node id="1356546297" x="213724.38" y="450015.59" type="priority"/>
    <node id="1360478538" x="216067.86" y="448929.41" type="priority"/>
    <node id="13876324" x="216706.20" y="452262.70" type="priority"/>
    <node id="1387938626" x="213077.39" y="451168.32" type="priority"/>
    <node id="1389555057" x="211084.20" y="453818.10" type="priority"/>
    <node id="1389555446" x="210976.74" y="453905.44" type="priority"/>
    <node id="1389555504" x="211034.45" y="453922.35" type="dead_end"/>
    <node id="1389744571" x="210475.53" y="452827.00" type="priority"/>
    <node id="1389745347" x="210777.73" y="453040.28" type="priority"/>
    <node id="139531" x="216430.08" y="450063.65" type="priority"/>
    <node id="139533" x="216396.77" y="450314.27" type="priority"/>
    <node id="139534" x="216427.07" y="449972.64" type="priority"/>
    <node id="139537" x="216489.65" y="450996.69" type="priority"/>
    <node id="139540" x="216472.79" y="450998.95" type="priority"/>
    <node id="139542" x="216607.97" y="451924.52" type="priority"/>
    <node id="139543" x="216621.08" y="452285.65" type="priority"/>
    <node id="139544" x="216612.60" y="452574.83" type="priority"/>
    <node id="139545" x="216594.15" y="452593.91" type="priority"/>
    <node id="139546" x="216603.97" y="452294.14" type="priority"/>
    <node id="139547" x="216580.40" y="451819.42" type="priority"/>
    <node id="139553" x="216557.89" y="452967.03" type="priority"/>
    <node id="139615" x="213843.49" y="454991.02" type="dead_end"/>
    <node id="139617" x="213856.85" y="454644.07" type="priority"/>
    <node id="139618" x="213873.48" y="454526.66" type="priority"/>
    <node id="139619" x="213866.01" y="454412.10" type="priority"/>
    <node id="139620" x="213808.56" y="454331.68" type="priority"/>
    <node id="139622" x="213669.84" y="454286.86" type="priority"/>
    <node id="139624" x="213114.63" y="454432.10" type="priority"/>
    <node id="139634" x="212500.90" y="454560.24" type="priority"/>
    <node id="1401628134" x="212670.18" y="454668.55" type="priority"/>
    <node id="1406017203" x="212500.48" y="454534.43" type="priority"/>
    <node id="1407202633" x="215960.02" y="454115.40" type="priority"/>
    <node id="1407202634" x="215983.60" y="454116.75" type="dead_end"/>
    <node id="1407202774" x="215863.52" y="454236.85" type="right_before_left"/>
    <node id="1407203378" x="215116.77" y="454579.80" type="priority"/>
    <node id="1407203497" x="215140.84" y="454645.10" type="priority"/>
    <node id="1407203980" x="216669.05" y="454775.62" type="dead_end"/>
    <node id="1416087079" x="213714.97" y="454288.83" type="priority"/>
    <node id="1416087229" x="213864.12" y="454342.92" type="priority"/>
    <node id="1416087290" x="213857.08" y="454362.10" type="priority"/>
    <node id="1416087318" x="213850.46" y="454381.10" type="priority"/>
    <node id="1416087793" x="212796.45" y="454667.82" type="zipper"/>
    <node id="1418777918" x="211202.31" y="451945.55" type="priority"/>
    <node id="1418777925" x="211366.48" y="451962.03" type="priority"/>
    <node id="1418778002" x="211131.00" y="452000.38" type="priority"/>
    <node id="1418778007" x="211284.76" y="452012.47" type="priority"/>
    <node id="1418778056" x="211204.79" y="452110.64" type="priority"/>
    <node id="1418778238" x="211230.33" y="452337.50" type="priority"/>
    <node id="1418778386" x="211225.48" y="452449.57" type="priority"/>
    <node id="1423242655" x="212083.83" y="451908.69" type="right_before_left"/>
    <node id="1423242663" x="211834.11" y="451915.34" type="priority"/>
    <node id="1423242665" x="212088.44" y="451922.56" type="priority"/>
    <node id="1423242716" x="211900.73" y="451995.70" type="priority"/>
    <node id="1427080612" x="212733.98" y="453634.27" type="priority"/>
    <node id="1427080654" x="212702.47" y="453650.26" type="priority"/>
    <node id="1427494696" x="212297.49" y="453068.45" type="priority"/>
    <node id="1427494803" x="213110.57" y="453235.06" type="priority"/>
    <node id="1427494830" x="212991.19" y="453340.21" type="priority"/>
    <node id="1427494993" x="212599.39" y="453482.79" type="priority"/>
    <node id="1431096093" x="215600.22" y="453742.06" type="priority"/>
    <node id="1431096368" x="215178.21" y="454351.47" type="dead_end"/>
    <node id="1433119608" x="214395.73" y="450770.47" type="priority"/>
    <node id="1434862689" x="210624.77" y="452179.84" type="priority"/>
    <node id="1434862733" x="210828.10" y="452278.93" type="priority"/>
    <node id="1434862845" x="210961.06" y="452620.64" type="priority"/>
    <node id="1438846501" x="214934.05" y="451382.94" type="priority"/>
    <node id="1442150022" x="214469.26" y="450351.78" type="priority"/>
    <node id="1442207872" x="214443.74" y="450365.44" type="priority"/>
    <node id="1443568612" x="214652.20" y="450348.56" type="priority"/>
    <node id="1443568829" x="214729.92" y="450607.16" type="priority"/>
    <node id="1448519178" x="214541.85" y="451243.24" type="priority"/>
    <node id="1449162470" x="216438.28" y="453154.65" type="priority"/>
    <node id="1449162734" x="216180.62" y="453554.20" type="priority"/>
    <node id="1449162770" x="215964.60" y="453729.50" type="dead_end"/>
    <node id="1449403794" x="209787.11" y="453250.19" type="dead_end"/>
    <node id="1449425678" x="210275.50" y="452737.74" type="priority"/>
    <node id="1449425681" x="210243.69" y="452769.97" type="dead_end"/>
    <node id="1459264860" x="216312.00" y="452615.05" type="priority"/>
    <node id="1459264867" x="216153.75" y="452621.17" type="priority"/>
    <node id="1459264869" x="216292.17" y="452627.91" type="priority"/>
    <node id="148517322" x="214864.11" y="448233.14" type="priority"/>
    <node id="148517327" x="214794.67" y="448153.69" type="priority"/>
    <node id="148517341" x="214787.46" y="448061.04" type="priority"/>
    <node id="148517372" x="214750.97" y="448013.41" type="priority"/>
    <node id="148517412" x="214942.56" y="448077.78" type="priority"/>
    <node id="1488941791" x="214842.16" y="451373.91" type="priority"/>
    <node id="1496549456" x="213947.14" y="452691.92" type="priority"/>
    <node id="1498857716" x="210768.96" y="453923.91" type="dead_end"/>
    <node id="1500083035" x="209991.08" y="453640.36" type="priority"/>
    <node id="1500083037" x="212969.61" y="449849.03" type="dead_end"/>
    <node id="1500083243" x="210345.99" y="453545.68" type="priority"/>
    <node id="1504207551" x="212242.84" y="452413.88" type="right_before_left"/>
    <node id="1504207553" x="212250.99" y="452423.88" type="priority"/>
    <node id="1504207555" x="212259.43" y="452429.61" type="priority"/>
    <node id="1504207558" x="212243.85" y="452439.65" type="priority"/>
    <node id="1504207559" x="212251.38" y="452442.63" type="priority"/>
    <node id="1505457072" x="213955.43" y="452599.39" type="priority"/>
    <node id="1505488446" x="214472.72" y="452804.73" type="priority"/>
    <node id="1507566520" x="209535.70" y="453011.26" type="dead_end"/>
    <node id="1507566567" x="212075.14" y="451684.91" type="priority"/>
    <node id="1507566826" x="212146.08" y="453007.62" type="priority"/>
    <node id="1507612628" x="215436.85" y="452687.86" type="priority"/>
    <node id="1507612745" x="215568.15" y="453102.60" type="priority"/>
    <node id="1507762172" x="214941.94" y="452052.28" type="priority"/>
    <node id="1507762191" x="214814.06" y="452094.48" type="priority"/>
    <node id="1508593696" x="216465.41" y="452899.20" type="priority"/>
    <node id="1509832040" x="210789.26" y="453320.58" type="priority"/>
    <node id="1509832076" x="211497.91" y="453585.15" type="priority"/>
    <node id="1509951406" x="212193.59" y="452965.96" type="priority"/>
    <node id="1515873768" x="211380.20" y="453441.18" type="priority"/>
    <node id="1516301969" x="212849.20" y="450428.40" type="right_before_left"/>
    <node id="1516301973" x="212967.43" y="450461.04" type="priority"/>
    <node id="1516301984" x="212959.03" y="450482.86" type="priority"/>
    <node id="1516301992" x="212705.46" y="450545.83" type="priority"/>
    <node id="1516301995" x="212895.41" y="450630.32" type="right_before_left"/>
    <node id="1516302011" x="212424.48" y="452104.45" type="priority"/>
    <node id="1516302022" x="217003.33" y="452331.01" type="priority"/>
    <node id="1516302027" x="217097.77" y="452360.57" type="priority"/>
    <node id="1516302030" x="217287.67" y="452386.43" type="priority"/>
    <node id="1516302035" x="217312.38" y="452397.47" type="priority"/>
    <node id="1516302036" x="212392.02" y="452249.83" type="priority"/>
    <node id="1516302037" x="217290.89" y="452408.05" type="priority"/>
    <node id="1517542703" x="213612.77" y="452773.87" type="priority"/>
    <node id="1517542714" x="213253.89" y="452987.24" type="priority"/>
    <node id="1526094877" x="212908.59" y="451655.49" type="priority"/>
    <node id="1528577647" x="210436.10" y="453172.38" type="priority"/>
    <node id="1528577695" x="210503.16" y="453379.28" type="priority"/>
    <node id="1529349385" x="209969.04" y="453785.64" type="priority"/>
    <node id="1539969312" x="210947.88" y="449332.38" type="dead_end"/>
    <node id="1539969633" x="210942.53" y="449810.85" type="right_before_left"/>
    <node id="1539969644" x="210880.32" y="449848.90" type="priority"/>
    <node id="1539969648" x="210900.76" y="449861.21" type="right_before_left"/>
    <node id="1539969673" x="210871.59" y="449868.76" type="priority"/>
    <node id="1539969681" x="210896.79" y="449878.00" type="right_before_left"/>
    <node id="1539969713" x="210917.41" y="449889.45" type="right_before_left"/>
    <node id="1539969740" x="210682.80" y="449961.55" type="dead_end"/>
    <node id="1539969751" x="210589.34" y="449969.49" type="right_before_left"/>
    <node id="1539970022" x="211941.16" y="450317.42" type="dead_end"/>
    <node id="1539970216" x="210573.27" y="450339.23" type="dead_end"/>
    <node id="1539970218" x="211268.91" y="450361.02" type="priority"/>
    <node id="1539970269" x="210577.92" y="450368.07" type="dead_end"/>
    <node id="1539970344" x="210448.49" y="450407.05" type="priority"/>
    <node id="1539970492" x="210708.05" y="450519.26" type="priority"/>
    <node id="1539970603" x="212039.12" y="450766.56" type="priority"/>
    <node id="1539970604" x="212034.05" y="450766.98" type="priority"/>
    <node id="1540767737" x="214427.69" y="451924.57" type="dead_end"/>
    <node id="1540767896" x="214457.92" y="452135.76" type="priority"/>
    <node id="1540767902" x="214398.21" y="452152.77" type="priority"/>
    <node id="1540767903" x="214446.92" y="452157.06" type="priority"/>
    <node id="1541227311" x="215021.48" y="450706.79" type="priority"/>
    <node id="1542094045" x="216346.56" y="450770.92" type="priority"/>
    <node id="1542094048" x="216327.36" y="450798.18" type="priority"/>
    <node id="1542094062" x="216028.10" y="450826.37" type="dead_end"/>
    <node id="1542094064" x="216301.75" y="450827.46" type="priority"/>
    <node id="1542094077" x="215767.72" y="450809.48" type="right_before_left"/>
    <node id="1542094079" x="215904.80" y="450824.56" type="priority"/>
    <node id="1542094082" x="216268.02" y="450852.85" type="priority"/>
    <node id="1542094083" x="215993.76" y="450848.17" type="right_before_left"/>
    <node id="1542094105" x="215844.68" y="450869.73" type="priority"/>
    <node id="1542094118" x="215808.94" y="450883.34" type="right_before_left"/>
    <node id="1542094122" x="215928.23" y="450890.98" type="priority"/>
    <node id="1542094125" x="216362.87" y="450903.66" type="dead_end"/>
    <node id="1542094133" x="215757.18" y="450912.40" type="dead_end"/>
    <node id="1542094141" x="215946.90" y="450922.27" type="right_before_left"/>
    <node id="1542094144" x="216037.05" y="450936.82" type="priority"/>
    <node id="1542094157" x="216375.91" y="450952.53" type="dead_end"/>
    <node id="1542094158" x="216183.41" y="450940.09" type="dead_end"/>
    <node id="1542094159" x="216300.72" y="450949.58" type="priority"/>
    <node id="1542094163" x="215978.94" y="450972.78" type="right_before_left"/>
    <node id="1542094168" x="216063.17" y="450977.89" type="priority"/>
    <node id="1542094183" x="216115.25" y="450998.61" type="dead_end"/>
    <node id="1542094200" x="215922.69" y="451008.43" type="priority"/>
    <node id="1542094204" x="216260.95" y="451034.72" type="right_before_left"/>
    <node id="1542094211" x="216071.73" y="451052.96" type="dead_end"/>
    <node id="1542094215" x="215946.28" y="451050.07" type="priority"/>
    <node id="1542094237" x="216158.30" y="451088.11" type="right_before_left"/>
    <node id="1542094261" x="215407.16" y="451175.01" type="priority"/>
    <node id="1544146548" x="215240.02" y="449770.43" type="priority"/>
    <node id="1544146578" x="215774.04" y="450820.93" type="right_before_left"/>
    <node id="1544146583" x="215731.91" y="450845.70" type="dead_end"/>
    <node id="1544146612" x="215687.12" y="450960.01" type="priority"/>
    <node id="1565386198" x="211307.51" y="453295.48" type="priority"/>
    <node id="1568355394" x="209657.18" y="451073.57" type="dead_end"/>
    <node id="1581783926" x="215305.60" y="452892.58" type="priority"/>
    <node id="1585223844" x="214023.10" y="450793.97" type="right_before_left"/>
    <node id="1585223847" x="214037.96" y="450811.82" type="right_before_left"/>
    <node id="1585223848" x="214082.39" y="450826.12" type="priority"/>
    <node id="1585223849" x="213918.05" y="450834.85" type="priority"/>
    <node id="1585223851" x="214000.13" y="450892.80" type="right_before_left"/>
    <node id="1589680652" x="216395.06" y="449131.97" type="right_before_left"/>
    <node id="1589680654" x="216403.09" y="449137.92" type="right_before_left"/>
    <node id="1602102075" x="216895.84" y="448083.49" type="priority"/>
    <node id="1602102081" x="216983.54" y="448111.61" type="priority"/>
    <node id="1602102082" x="217208.35" y="448131.06" type="priority"/>
    <node id="1602102084" x="216666.57" y="448122.95" type="priority"/>
    <node id="1602102098" x="216593.10" y="448139.06" type="priority"/>
    <node id="1602102104" x="216578.54" y="448176.70" type="priority"/>
    <node id="1602102121" x="217002.53" y="448201.28" type="priority"/>
    <node id="1602381826" x="211867.74" y="452209.00" type="priority"/>
    <node id="1602381828" x="211918.08" y="452215.14" type="priority"/>
    <node id="1602381830" x="211916.36" y="452225.77" type="priority"/>
    <node id="1611608449" x="214186.28" y="452257.06" type="right_before_left"/>
    <node id="1611608453" x="214052.21" y="452268.16" type="right_before_left"/>
    <node id="1611608462" x="214179.99" y="452322.91" type="right_before_left"/>
    <node id="1611608463" x="214056.14" y="452327.59" type="right_before_left"/>
    <node id="1611608468" x="214253.35" y="452353.24" type="dead_end"/>
    <node id="1611608472" x="214050.04" y="452360.39" type="right_before_left"/>
    <node id="1611608481" x="213936.17" y="452407.86" type="right_before_left"/>
    <node id="1611608496" x="213978.64" y="452462.55" type="priority"/>
    <node id="1614581582" x="211514.07" y="453194.34" type="priority"/>
    <node id="1614581588" x="211485.12" y="453265.73" type="priority"/>
    <node id="1616205055" x="214148.61" y="447094.27" type="right_before_left"/>
    <node id="1616205089" x="210684.92" y="453475.60" type="priority"/>
    <node id="1616214561" x="210430.01" y="453794.01" type="priority"/>
    <node id="1616802851" x="210355.65" y="453990.09" type="priority"/>
    <node id="1617626346" x="210912.27" y="452385.78" type="priority"/>
    <node id="1620786348" x="216169.32" y="452196.14" type="priority"/>
    <node id="1620786356" x="215964.61" y="452181.59" type="priority"/>
    <node id="1637088067" x="213806.88" y="448921.70" type="priority"/>
    <node id="1638863673" x="210652.00" y="453980.51" type="priority"/>
    <node id="1639935423" x="216114.08" y="451877.15" type="priority"/>
    <node id="1639935438" x="216227.09" y="451923.52" type="dead_end"/>
    <node id="1639935440" x="216091.84" y="451986.47" type="priority"/>
    <node id="1639935446" x="216196.73" y="452690.86" type="priority"/>
    <node id="1644722623" x="210686.86" y="453855.13" type="priority"/>
    <node id="1649110086" x="215057.62" y="452751.64" type="priority"/>
    <node id="1649125265" x="215039.21" y="452754.04" type="priority"/>
    <node id="1659885575" x="213872.50" y="448700.10" type="priority"/>
    <node id="1664030227" x="210089.98" y="450384.56" type="dead_end"/>
    <node id="1671593483" x="214415.19" y="451825.92" type="priority"/>
    <node id="1682019321" x="213721.91" y="447266.03" type="dead_end"/>
    <node id="1682019324" x="214489.51" y="447292.86" type="dead_end"/>
    <node id="1682020255" x="214028.29" y="447881.86" type="dead_end"/>
    <node id="1682020260" x="214199.63" y="447894.35" type="priority"/>
    <node id="1683520094" x="214150.75" y="447887.57" type="right_before_left"/>
    <node id="1690490302" x="214106.89" y="450719.88" type="priority"/>
    <node id="1690490327" x="214098.06" y="450752.99" type="right_before_left"/>
    <node id="1690490369" x="214019.63" y="450805.39" type="right_before_left"/>
    <node id="1695144073" x="217159.69" y="452200.98" type="right_before_left"/>
    <node id="1695149564" x="217483.77" y="451772.53" type="right_before_left"/>
    <node id="1695149565" x="217451.15" y="451678.15" type="priority"/>
    <node id="1695149574" x="217347.15" y="451802.70" type="right_before_left"/>
    <node id="1695149576" x="217237.08" y="451861.64" type="right_before_left"/>
    <node id="1695149617" x="217686.04" y="451880.09" type="right_before_left"/>
    <node id="1717650207" x="212590.49" y="452311.76" type="priority"/>
    <node id="17199693" x="216597.01" y="449821.21" type="priority"/>
    <node id="17200054" x="216489.39" y="449797.04" type="priority"/>
    <node id="17200263" x="216540.97" y="449789.37" type="priority"/>
    <node id="1720283784" x="214154.57" y="449479.51" type="dead_end"/>
    <node id="1720283863" x="214190.88" y="449489.08" type="right_before_left"/>
    <node id="1720284004" x="214158.63" y="449517.87" type="dead_end"/>
    <node id="1720284048" x="214186.50" y="449524.87" type="right_before_left"/>
    <node id="17203139" x="217657.04" y="452553.32" type="dead_end"/>
    <node id="17204988" x="216285.06" y="449988.83" type="priority"/>
    <node id="17204991" x="216307.55" y="449932.48" type="priority"/>
    <node id="1721646494" x="214404.10" y="449618.52" type="dead_end"/>
    <node id="1721646762" x="214383.49" y="449717.65" type="priority"/>
    <node id="1721646821" x="214502.95" y="449780.94" type="priority"/>
    <node id="1721646916" x="214503.75" y="449820.35" type="dead_end"/>
    <node id="1723628630" x="214377.07" y="450249.71" type="priority"/>
    <node id="1723628634" x="214272.23" y="450307.15" type="priority"/>
    <node id="1724786014" x="212482.82" y="451823.39" type="priority"/>
    <node id="1737438941" x="210371.18" y="453951.20" type="priority"/>
    <node id="1737438960" x="210416.24" y="453992.34" type="priority"/>
    <node id="1737438997" x="210383.31" y="454026.72" type="priority"/>
    <node id="1737439001" x="210376.90" y="454027.96" type="priority"/>
    <node id="1737439028" x="210383.74" y="454040.23" type="priority"/>
    <node id="1737439031" x="210739.02" y="454055.75" type="priority"/>
    <node id="1737439074" x="210671.45" y="454074.05" type="priority"/>
    <node id="1737439089" x="210477.97" y="454136.62" type="priority"/>
    <node id="1737439106" x="210431.05" y="454169.83" type="priority"/>
    <node id="1737439109" x="210434.65" y="454177.24" type="priority"/>
    <node id="1737439124" x="210416.23" y="454211.76" type="priority"/>
    <node id="1737439127" x="210409.80" y="454212.56" type="priority"/>
    <node id="1737482829" x="213238.79" y="453146.48" type="right_before_left"/>
    <node id="1737482881" x="213100.39" y="453252.58" type="priority"/>
    <node id="1742723606" x="216111.98" y="451496.47" type="right_before_left"/>
    <node id="1745609631" x="213874.09" y="454347.05" type="priority"/>
    <node id="1752529822" x="214747.14" y="449867.16" type="priority"/>
    <node id="1752790730" x="210882.31" y="453813.16" type="priority"/>
    <node id="1757124325" x="216769.78" y="450371.29" type="priority"/>
    <node id="1757124354" x="213432.20" y="451239.42" type="priority"/>
    <node id="1757370807" x="211916.23" y="453593.25" type="priority"/>
    <node id="1762464764" x="211306.35" y="453600.61" type="priority"/>
    <node id="1769637675" x="214486.22" y="452262.94" type="right_before_left"/>
    <node id="1770608862" x="214516.52" y="452216.56" type="priority"/>
    <node id="1782512800" x="209997.30" y="452633.83" type="priority"/>
    <node id="1782512801" x="209989.99" y="452635.88" type="priority"/>
    <node id="1782536366" x="211163.63" y="451416.62" type="priority"/>
    <node id="1782978609" x="211895.28" y="452061.72" type="priority"/>
    <node id="1782978693" x="211882.90" y="452257.95" type="priority"/>
    <node id="1782978746" x="211987.98" y="452434.73" type="priority"/>
    <node id="1808991338" x="216374.60" y="452546.55" type="dead_end"/>
    <node id="1815670907" x="212223.12" y="450887.54" type="priority"/>
    <node id="1815670952" x="211723.16" y="451682.62" type="priority"/>
    <node id="1821113837" x="216526.72" y="451725.14" type="dead_end"/>
    <node id="1821113866" x="216538.08" y="451841.29" type="priority"/>
    <node id="1821113876" x="216228.28" y="451867.02" type="priority"/>
    <node id="1821113879" x="217334.87" y="451916.69" type="right_before_left"/>
    <node id="1821113887" x="216244.90" y="451900.21" type="priority"/>
    <node id="1821113920" x="217185.97" y="452100.29" type="priority"/>