<?xml version="1.0" encoding="UTF-8"?>

<!-- generated on 2022-06-27 17:06:06 by Eclipse SUMO netconvert Version 1.12.0
<configuration xmlns:xsi="http://www.w3.org/2001/XMLSchema-instance" xsi:noNamespaceSchemaLocation="http://sumo.dlr.de/xsd/netconvertConfiguration.xsd">

    <input>
        <sumo-net-file value="/home/lobo/Repository/RealFuture_repo/InTAS_RealFuture/scenario/InTAS.net.xml"/>
    </input>

    <output>
        <plain-output-prefix value="/home/lobo/Repository/RealFuture_repo/InTAS_RealFuture/scenario/InTAS"/>
    </output>

    <processing>
        <geometry.min-radius.fix.railways value="false"/>
        <geometry.max-grade.fix value="false"/>
        <offset.disable-normalization value="true"/>
        <roundabouts.guess value="false"/>
        <lefthand value="false"/>
    </processing>

    <junctions>
        <no-turnarounds value="true"/>
        <junctions.corner-detail value="5"/>
        <junctions.limit-turn-speed value="5.5"/>
        <rectangular-lane-cut value="false"/>
    </junctions>

    <pedestrian>
        <walkingareas value="false"/>
    </pedestrian>

    <report>
        <aggregate-warnings value="5"/>
    </report>

</configuration>
-->

<edges version="1.9" xmlns:xsi="http://www.w3.org/2001/XMLSchema-instance" xsi:noNamespaceSchemaLocation="http://sumo.dlr.de/xsd/edges_file.xsd">
    <edge id="-101238042" from="267408879" to="376510027" priority="4" type="highway.residential" numLanes="2" speed="8.33">
        <lane index="0" allow="pedestrian" width="2.00"/>
        <lane index="1" disallow="pedestrian tram rail_urban rail rail_electric rail_fast ship"/>
    </edge>
    <edge id="-101731858" from="1174664088" to="865007985" priority="4" type="highway.residential" numLanes="2" speed="13.89" shape="215611.85,449405.18 215604.30,449392.25 215592.85,449383.34 215585.28,449381.23 215548.16,449402.09">
        <lane index="0" allow="pedestrian" width="2.00"/>
        <lane index="1" disallow="pedestrian tram rail_urban rail rail_electric rail_fast ship"/>
    </edge>
    <edge id="-102818928#0" from="2053244661" to="gneJ33" priority="6" type="highway.tertiary" numLanes="2" speed="13.89" shape="214004.67,450580.50 214000.00,450574.35 213957.20,450518.01">
        <lane index="0" allow="pedestrian" width="2.00"/>
        <lane index="1" disallow="pedestrian tram rail_urban rail rail_electric rail_fast ship"/>
    </edge>
    <edge id="-102818928#0.78" from="gneJ33" to="IN_5090" priority="6" type="highway.tertiary" numLanes="3" speed="13.89" shape="213957.20,450518.01 213937.14,450499.70 213916.98,450484.39 213901.05,450472.48">
        <lane index="0" allow="pedestrian" width="2.00"/>
        <lane index="1" disallow="pedestrian tram rail_urban rail rail_electric rail_fast ship"/>
        <lane index="2" disallow="pedestrian tram rail_urban rail rail_electric rail_fast ship"/>
    </edge>
    <edge id="-102818928#1" from="IN_5080" to="2053244661" priority="6" type="highway.tertiary" numLanes="2" speed="13.89" shape="214047.75,450634.54 214008.20,450585.15 214004.67,450580.50">
        <lane index="0" allow="pedestrian" width="2.00"/>
        <lane index="1" disallow="pedestrian tram rail_urban rail rail_electric rail_fast ship"/>
    </edge>
    <edge id="-103396186" from="89129122" to="1168659850" priority="4" type="highway.residential" numLanes="2" speed="8.33">
        <lane index="0" allow="pedestrian" width="2.00"/>
        <lane index="1" disallow="pedestrian tram rail_urban rail rail_electric rail_fast ship"/>
    </edge>
    <edge id="-103512667#0" from="89129121" to="267380165" priority="4" type="highway.residential" numLanes="2" speed="8.33" shape="213543.37,451233.56 213535.91,451233.12 213528.57,451234.00 213494.21,451243.44">
        <lane index="0" allow="pedestrian" width="2.00"/>
        <lane index="1" disallow="pedestrian tram rail_urban rail rail_electric rail_fast ship"/>
    </edge>
    <edge id="-103512667#1" from="89129122" to="89129121" priority="4" type="highway.residential" numLanes="2" speed="8.33" shape="213558.78,451221.04 213553.83,451223.04 213548.11,451227.73 213543.37,451233.56">
        <lane index="0" allow="pedestrian" width="2.00"/>
        <lane index="1" disallow="pedestrian tram rail_urban rail rail_electric rail_fast ship"/>
    </edge>
    <edge id="-103512667#2" from="267408878" to="89129122" priority="4" type="highway.residential" numLanes="2" speed="8.33" shape="213587.17,451217.59 213571.35,451219.16 213558.78,451221.04">
        <lane index="0" allow="pedestrian" width="2.00"/>
        <lane index="1" disallow="pedestrian tram rail_urban rail rail_electric rail_fast ship"/>
    </edge>
    <edge id="-103671248" from="339222628" to="1196936357" priority="5" type="highway.unclassified" numLanes="2" speed="5.56">
        <lane index="0" allow="pedestrian" width="2.00"/>
        <lane index="1" disallow="pedestrian tram rail_urban rail rail_electric rail_fast ship"/>
    </edge>
    <edge id="-103671270" from="276184126" to="32566581" priority="5" type="highway.unclassified" numLanes="2" speed="13.89" shape="214092.21,453098.30 214123.63,453105.46 214150.48,453116.07 214163.06,453121.33 214256.51,453158.17">
        <lane index="0" allow="pedestrian" width="2.00"/>
        <lane index="1" disallow="pedestrian tram rail_urban rail rail_electric rail_fast ship"/>
    </edge>
    <edge id="-103671288" from="339222633" to="1196936324" priority="4" type="highway.residential" numLanes="2" speed="8.33">
        <lane index="0" allow="pedestrian" width="2.00"/>
        <lane index="1" disallow="pedestrian tram rail_urban rail rail_electric rail_fast ship"/>
    </edge>
    <edge id="-103718173" from="cluster_1834131478_1834131479" to="1834136990" priority="4" type="highway.residential" numLanes="2" speed="13.89" shape="214477.61,450218.78 214482.97,450219.60 214510.47,450223.77 214560.40,450231.34 214576.29,450233.75 214624.96,450240.44 214645.68,450242.71 214663.06,450241.93">
        <lane index="0" allow="pedestrian" width="2.00"/>
        <lane index="1" disallow="pedestrian tram rail_urban rail rail_electric rail_fast ship"/>
    </edge>
    <edge id="-104010328" from="1200363969" to="320006202" priority="4" type="highway.residential" numLanes="2" speed="13.89" shape="212989.38,451522.35 212976.18,451525.39 212941.81,451530.77 212925.35,451533.16 212906.60,451534.67 212886.36,451535.12">
        <lane index="0" allow="pedestrian" width="2.00"/>
        <lane index="1" disallow="pedestrian tram rail_urban rail rail_electric rail_fast ship"/>
    </edge>
    <edge id="-10425532#5" from="89127269" to="690288770" priority="4" type="highway.residential" numLanes="2" speed="8.33" shape="213605.04,452938.45 213602.27,452942.89 213601.31,452948.58 213598.72,453000.51 213596.70,453008.30 213590.75,453015.79 213584.42,453018.73 213573.14,453019.91 213545.96,453018.38 213508.36,453014.41 213470.59,453011.07 213450.28,453006.28 213435.07,453003.92">
        <lane index="0" allow="pedestrian" width="2.00"/>
        <lane index="1" disallow="pedestrian tram rail_urban rail rail_electric rail_fast ship"/>
    </edge>
    <edge id="-10425610#2" from="269095126" to="IN_5080" priority="6" type="highway.tertiary" numLanes="3" speed="13.89" shape="214009.93,450661.03 214022.48,450652.83 214036.62,450642.82 214047.75,450634.54">
        <lane index="0" allow="pedestrian" width="2.00"/>
        <lane index="1" disallow="pedestrian tram rail_urban rail rail_electric rail_fast ship"/>
        <lane index="2" disallow="pedestrian tram rail_urban rail rail_electric rail_fast ship"/>
    </edge>
    <edge id="-10425611#0" from="310442384" to="gneJ167" priority="6" type="highway.tertiary.under.bridge" numLanes="3" speed="13.89" shape="215110.77,451398.13 215084.79,451383.48 215078.90,451381.99">
        <lane index="0" allow="pedestrian" width="2.00"/>
        <lane index="1" disallow="pedestrian tram rail_urban rail rail_electric rail_fast ship"/>
        <lane index="2" disallow="pedestrian tram rail_urban rail rail_electric rail_fast ship"/>
    </edge>
    <edge id="-10425611#0.35" from="gneJ167" to="26288876" priority="6" type="highway.tertiary" numLanes="3" speed="13.89" shape="215078.90,451381.99 215056.49,451376.32 215027.98,451374.48 214993.09,451377.03">
        <lane index="0" allow="pedestrian" width="2.00"/>
        <lane index="1" disallow="pedestrian tram rail_urban rail rail_electric rail_fast ship"/>
        <lane index="2" disallow="pedestrian tram rail_urban rail rail_electric rail_fast ship"/>
    </edge>
    <edge id="-10425611#1" from="274591093" to="310442384" priority="6" type="highway.tertiary" numLanes="3" speed="13.89" shape="215145.91,451434.62 215133.74,451419.26 215110.77,451398.13">
        <lane index="0" allow="pedestrian" width="2.00"/>
        <lane index="1" disallow="pedestrian tram rail_urban rail rail_electric rail_fast ship"/>
        <lane index="2" disallow="pedestrian tram rail_urban rail rail_electric rail_fast ship"/>
    </edge>
    <edge id="-10425743" from="cluster_1427080610_2291353499_2291353500" to="IN_4210" priority="6" type="highway.tertiary" numLanes="3" speed="13.89" shape="212708.40,453632.04 212715.45,453643.72">
        <lane index="0" allow="pedestrian" width="2.00"/>
        <lane index="1" disallow="pedestrian tram rail_urban rail rail_electric rail_fast ship"/>
        <lane index="2" disallow="pedestrian tram rail_urban rail rail_electric rail_fast ship"/>
    </edge>
    <edge id="-10427552" from="1287697828" to="287963611" priority="6" type="highway.tertiary" numLanes="2" speed="13.89">
        <lane index="0" allow="pedestrian" width="2.00"/>
        <lane index="1" disallow="pedestrian tram rail_urban rail rail_electric rail_fast ship"/>
    </edge>
    <edge id="-10427692#1" from="89173755" to="IN_4160" priority="6" type="highway.tertiary" numLanes="3" speed="22.22" shape="211775.72,451853.73 211760.52,451808.48 211756.54,451796.68">
        <lane index="0" allow="pedestrian" width="2.00"/>
        <lane index="1" disallow="pedestrian tram rail_urban rail rail_electric rail_fast ship"/>
        <lane index="2" disallow="pedestrian tram rail_urban rail rail_electric rail_fast ship"/>
    </edge>
    <edge id="-10427692#2" from="89173751" to="89173755" priority="6" type="highway.tertiary" numLanes="2" speed="22.22">
        <lane index="0" allow="pedestrian" width="2.00"/>
        <lane index="1" disallow="pedestrian tram rail_urban rail rail_electric rail_fast ship"/>
    </edge>
    <edge id="-10427692#3" from="344963236" to="89173751" priority="6" type="highway.tertiary" numLanes="2" speed="22.22" shape="211802.35,451903.33 211793.14,451892.39 211785.67,451879.57">
        <lane index="0" allow="pedestrian" width="2.00"/>
        <lane index="1" disallow="pedestrian tram rail_urban rail rail_electric rail_fast ship"/>
    </edge>
    <edge id="-10427692#4" from="267783904" to="344963236" priority="6" type="highway.tertiary" numLanes="2" speed="22.22" shape="211830.25,451921.42 211815.96,451913.64 211802.35,451903.33">
        <lane index="0" allow="pedestrian" width="2.00"/>
        <lane index="1" disallow="pedestrian tram rail_urban rail rail_electric rail_fast ship"/>
    </edge>
    <edge id="-10427692#5" from="249179921" to="267783904" priority="6" type="highway.tertiary" numLanes="2" speed="22.22" shape="211888.94,451960.58 211876.04,451948.01 211860.74,451935.61 211830.25,451921.42">
        <lane index="0" allow="pedestrian" width="2.00"/>
        <lane index="1" disallow="pedestrian tram rail_urban rail rail_electric rail_fast ship"/>
    </edge>
    <edge id="-10427692#6" from="1423242716" to="249179921" priority="6" type="highway.tertiary" numLanes="2" speed="22.22" shape="211900.73,451995.70 211898.66,451986.34 211894.93,451973.41 211888.94,451960.58">
        <lane index="0" allow="pedestrian" width="2.00"/>
        <lane index="1" disallow="pedestrian tram rail_urban rail rail_electric rail_fast ship"/>
    </edge>
    <edge id="-10427692#7" from="1782978609" to="1423242716" priority="6" type="highway.tertiary" numLanes="2" speed="22.22" shape="211895.28,452061.72 211897.01,452029.58 211900.73,451995.70">
        <lane index="0" allow="pedestrian" width="2.00"/>
        <lane index="1" disallow="pedestrian tram rail_urban rail rail_electric rail_fast ship"/>
    </edge>
    <edge id="-10427692#8" from="313321254" to="1782978609" priority="6" type="highway.tertiary" numLanes="2" speed="22.22">
        <lane index="0" allow="pedestrian" width="2.00"/>
        <lane index="1" disallow="pedestrian tram rail_urban rail rail_electric rail_fast ship"/>
    </edge>
    <edge id="-105482066" from="cluster_1246262926_361444911" to="cluster_267289886_361444651" priority="4" type="highway.residential" numLanes="2" speed="8.33" shape="214045.14,451568.52 213993.90,451562.47 213983.46,451561.09 213972.54,451559.70 213926.65,451553.68 213909.28,451552.81 213905.15,451552.57 213883.69,451551.32 213859.81,451546.70 213819.63,451534.03">
        <lane index="0" allow="pedestrian" width="2.00"/>
        <lane index="1" disallow="pedestrian tram rail_urban rail rail_electric rail_fast ship"/>
    </edge>
    <edge id="-10597454#1" from="472442946" to="IN_8003" priority="4" type="highway.residential" numLanes="3" speed="13.89" shape="214761.63,449041.87 214745.97,449037.96 214734.83,449035.88">
        <lane index="0" allow="pedestrian" width="2.00"/>
        <lane index="1" disallow="pedestrian tram rail_urban rail rail_electric rail_fast ship"/>
        <lane index="2" disallow="pedestrian tram rail_urban rail rail_electric rail_fast ship"/>
    </edge>
    <edge id="-10597454#2" from="472442969" to="472442946" priority="4" type="highway.residential" numLanes="2" speed="13.89">
        <lane index="0" allow="pedestrian" width="2.00"/>
        <lane index="1" disallow="pedestrian tram rail_urban rail rail_electric rail_fast ship"/>
    </edge>
    <edge id="-10597455#2" from="699711095" to="cluster_699711043_92629228" priority="4" type="highway.residential" numLanes="2" speed="5.56" shape="214879.99,449187.28 214878.71,449181.70 214876.68,449176.83 214874.49,449170.66 214872.99,449164.50 214873.83,449157.04 214876.47,449147.00 214877.04,449144.85 214888.25,449106.09 214895.80,449078.51">
        <lane index="0" allow="pedestrian" width="2.00"/>
        <lane index="1" disallow="pedestrian tram rail_urban rail rail_electric rail_fast ship"/>
    </edge>
    <edge id="-106294154" from="1223385994" to="1223385992" priority="5" type="highway.unclassified" numLanes="2" speed="13.89">
        <lane index="0" allow="pedestrian" width="2.00"/>
        <lane index="1" disallow="pedestrian tram rail_urban rail rail_electric rail_fast ship"/>
    </edge>
    <edge id="-107431496#1" from="344960362" to="1234714136" priority="6" type="highway.tertiary" numLanes="2" speed="16.67" shape="210375.69,450860.17 210405.82,450876.27 210421.99,450885.94 210436.20,450896.49 210457.19,450916.66 210468.64,450928.77 210489.86,450956.32 210522.03,451002.24 210536.87,451021.87 210551.35,451040.72 210567.41,451056.88 210589.55,451075.87 210616.05,451093.60">
        <lane index="0" allow="pedestrian" width="2.00"/>
        <lane index="1" disallow="pedestrian tram rail_urban rail rail_electric rail_fast ship"/>
    </edge>
    <edge id="-107431496#3" from="1079587068" to="344960362" priority="6" type="highway.tertiary" numLanes="2" speed="16.67" shape="210356.52,450850.81 210364.13,450854.53 210375.69,450860.17">
        <lane index="0" allow="pedestrian" width="2.00"/>
        <lane index="1" disallow="pedestrian tram rail_urban rail rail_electric rail_fast ship"/>
    </edge>
    <edge id="-107431496#4" from="89173867" to="1079587068" priority="6" type="highway.tertiary" numLanes="2" speed="16.67" shape="210274.29,450812.20 210336.88,450842.08 210356.52,450850.81">
        <lane index="0" allow="pedestrian" width="2.00"/>
        <lane index="1" disallow="pedestrian tram rail_urban rail rail_electric rail_fast ship"/>
    </edge>
    <edge id="-107671228" from="267287810" to="271678812" priority="4" type="highway.residential" numLanes="2" speed="8.33" shape="214065.34,451678.88 214060.93,451637.95 214059.71,451629.38">
        <lane index="0" allow="pedestrian" width="2.00"/>
        <lane index="1" disallow="pedestrian tram rail_urban rail rail_electric rail_fast ship"/>
    </edge>
    <edge id="-108239224#1" from="IN_4120" to="497596849" priority="4" type="highway.residential" numLanes="2" speed="13.89" shape="212966.70,453455.68 212887.88,453398.97 212804.77,453336.01">
        <lane index="0" allow="pedestrian" width="2.00"/>
        <lane index="1" disallow="pedestrian tram rail_urban rail rail_electric rail_fast ship"/>
    </edge>
    <edge id="-108310252" from="1833941824" to="cluster_267289886_361444651" priority="5" type="highway.unclassified" numLanes="2" speed="8.33" shape="213855.73,451457.85 213844.40,451482.06 213833.06,451506.26 213830.59,451511.20 213819.63,451534.03">
        <lane index="0" allow="pedestrian" width="2.00"/>
        <lane index="1" disallow="pedestrian tram rail_urban rail rail_electric rail_fast ship"/>
    </edge>
    <edge id="-108310253" from="cluster_267289886_361444651" to="cluster_1796993069_267286892" priority="5" type="highway.unclassified" numLanes="2" speed="8.33" shape="213818.56,451536.34 213813.21,451550.40 213805.28,451576.66 213793.31,451617.04 213785.36,451643.79">
        <lane index="0" allow="pedestrian" width="2.00"/>
        <lane index="1" disallow="pedestrian tram rail_urban rail rail_electric rail_fast ship"/>
    </edge>
    <edge id="-109483355" from="255887508" to="255887507" priority="4" type="highway.residential" numLanes="2" speed="8.33" shape="211114.12,452084.30 211103.51,452082.42 211064.09,452086.84 211050.57,452088.84 211003.64,452094.54 210975.68,452097.93 210909.71,452104.26">
        <lane index="0" allow="pedestrian" width="2.00"/>
        <lane index="1" disallow="pedestrian tram rail_urban rail rail_electric rail_fast ship"/>
    </edge>
    <edge id="-11014139#1" from="271683116" to="89129168" priority="6" type="highway.tertiary" numLanes="3" speed="13.89" shape="214463.96,451733.53 214419.45,451692.84 214410.89,451685.28">
        <lane index="0" allow="pedestrian" width="2.00"/>
        <lane index="1" disallow="pedestrian tram rail_urban rail rail_electric rail_fast ship"/>
        <lane index="2" disallow="pedestrian tram rail_urban rail rail_electric rail_fast ship"/>
    </edge>
    <edge id="-110750646#0" from="1263958452" to="1263958347" priority="4" type="highway.residential" numLanes="2" speed="13.89">
        <lane index="0" allow="pedestrian" width="2.00"/>
        <lane index="1" disallow="pedestrian tram rail_urban rail rail_electric rail_fast ship"/>
    </edge>
    <edge id="-110750646#1" from="1263958317" to="1263958452" priority="4" type="highway.residential" numLanes="2" speed="13.89">
        <lane index="0" allow="pedestrian" width="2.00"/>
        <lane index="1" disallow="pedestrian tram rail_urban rail rail_electric rail_fast ship"/>
    </edge>
    <edge id="-110750646#2" from="255898282" to="1263958317" priority="4" type="highway.residential" numLanes="2" speed="13.89">
        <lane index="0" allow="pedestrian" width="2.00"/>
        <lane index="1" disallow="pedestrian tram rail_urban rail rail_electric rail_fast ship"/>
    </edge>
    <edge id="-110750646#3" from="1263958347" to="255898282" priority="4" type="highway.residential" numLanes="2" speed="13.89">
        <lane index="0" allow="pedestrian" width="2.00"/>
        <lane index="1" disallow="pedestrian tram rail_urban rail rail_electric rail_fast ship"/>
    </edge>
    <edge id="-110750652" from="255886902" to="255897813" priority="4" type="highway.residential" numLanes="2" speed="13.89" shape="210249.72,452226.90 210233.93,452228.18 210211.19,452227.01 210195.92,452223.06 210185.10,452216.26 210179.72,452204.57 210179.64,452192.68">
        <lane index="0" allow="pedestrian" width="2.00"/>
        <lane index="1" disallow="pedestrian tram rail_urban rail rail_electric rail_fast ship"/>
    </edge>
    <edge id="-112979065#1" from="1282770564" to="1407203497" priority="4" type="highway.residential" numLanes="2" speed="13.89" shape="215112.05,454621.41 215132.47,454638.75 215137.44,454642.52 215140.84,454645.10">
        <lane index="0" allow="pedestrian" width="2.00"/>
        <lane index="1" disallow="pedestrian tram rail_urban rail rail_electric rail_fast ship"/>
    </edge>
    <edge id="-112979080" from="1282770595" to="281437367" priority="4" type="highway.residential" numLanes="2" speed="8.33" shape="214949.42,454719.37 214961.82,454717.70 214971.98,454716.29 214985.67,454714.68 215002.73,454712.61">
        <lane index="0" allow="pedestrian" width="2.00"/>
        <lane index="1" disallow="pedestrian tram rail_urban rail rail_electric rail_fast ship"/>
    </edge>
    <edge id="-113566916#0" from="288521817" to="288521820" priority="6" type="highway.tertiary" numLanes="2" speed="22.22">
        <lane index="0" allow="pedestrian" width="2.00"/>
        <lane index="1" disallow="pedestrian tram rail_urban rail rail_electric rail_fast ship"/>
    </edge>
    <edge id="-113566916#10" from="288521978" to="288521971" priority="6" type="highway.tertiary" numLanes="2" speed="22.22" shape="213178.44,448622.87 213123.49,448596.38 213087.69,448583.70 213066.83,448576.21">
        <lane index="0" allow="pedestrian" width="2.00"/>
        <lane index="1" disallow="pedestrian tram rail_urban rail rail_electric rail_fast ship"/>
    </edge>
    <edge id="-113566916#11" from="2108754875" to="288521978" priority="6" type="highway.tertiary" numLanes="2" speed="22.22" shape="213234.32,448651.62 213216.54,448642.39 213178.44,448622.87">
        <lane index="0" allow="pedestrian" width="2.00"/>
        <lane index="1" disallow="pedestrian tram rail_urban rail rail_electric rail_fast ship"/>
    </edge>
    <edge id="-113566916#7" from="288521971" to="288521844" priority="6" type="highway.tertiary" numLanes="2" speed="22.22">
        <lane index="0" allow="pedestrian" width="2.00"/>
        <lane index="1" disallow="pedestrian tram rail_urban rail rail_electric rail_fast ship"/>
    </edge>
    <edge id="-114325481" from="1434862845" to="357992835" priority="1" type="highway.track" numLanes="1" speed="5.56" shape="210961.06,452620.64 210963.87,452623.91 210980.45,452637.82" disallow="pedestrian tram rail_urban rail rail_electric rail_fast ship"/>
    <edge id="-114325482" from="1295323766" to="1295323763" priority="3" type="highway.living_street" numLanes="1" speed="2.78" shape="210204.56,452476.68 210261.14,452478.61 210259.59,452532.64" disallow="pedestrian tram rail_urban rail rail_electric rail_fast ship"/>
    <edge id="-115082348#0" from="1261109191" to="IN_3030" priority="6" type="highway.tertiary" numLanes="3" speed="13.89" shape="215003.77,451870.82 214990.32,451849.18">
        <lane index="0" allow="pedestrian" width="2.00"/>
        <lane index="1" disallow="pedestrian tram rail_urban rail rail_electric rail_fast ship"/>
        <lane index="2" disallow="pedestrian tram rail_urban rail rail_electric rail_fast ship"/>
    </edge>
    <edge id="-115082348#2" from="279484015" to="1261109191" priority="6" type="highway.tertiary" numLanes="2" speed="13.89" shape="215089.88,452013.57 215066.43,451973.02 215003.77,451870.82">
        <lane index="0" allow="pedestrian" width="2.00"/>
        <lane index="1" disallow="pedestrian tram rail_urban rail rail_electric rail_fast ship"/>
    </edge>
    <edge id="-115082348#3" from="282543890" to="279484015" priority="6" type="highway.tertiary" numLanes="2" speed="13.89">
        <lane index="0" allow="pedestrian" width="2.00"/>
        <lane index="1" disallow="pedestrian tram rail_urban rail rail_electric rail_fast ship"/>
    </edge>
    <edge id="-115082348#5" from="992628344" to="282543890" priority="6" type="highway.tertiary" numLanes="2" speed="13.89" shape="215176.65,452170.01 215163.51,452147.11 215135.06,452097.55">
        <lane index="0" allow="pedestrian" width="2.00"/>
        <lane index="1" disallow="pedestrian tram rail_urban rail rail_electric rail_fast ship"/>
    </edge>
    <edge id="-115082374#1" from="292226066" to="1211774688" priority="4" type="highway.residential" numLanes="1" speed="2.78" shape="210780.19,452482.04 210774.73,452477.98 210764.23,452470.19" disallow="pedestrian tram rail_urban rail rail_electric rail_fast ship"/>
    <edge id="-115881035#0" from="1328156485" to="1307952775" priority="3" type="highway.living_street" numLanes="1" speed="2.78" disallow="pedestrian tram rail_urban rail rail_electric rail_fast ship"/>
    <edge id="-115881035#8" from="1328156536" to="1328156485" priority="3" type="highway.living_street" numLanes="1" speed="2.78" shape="215300.28,450696.01 215295.91,450688.24 215273.48,450648.28 215259.00,450622.74 215256.55,450618.39 215255.73,450613.77 215256.00,450609.54 215257.98,450605.70 215261.93,450602.49 215294.96,450583.71 215330.65,450563.28 215367.12,450542.32 215402.29,450521.44" disallow="pedestrian tram rail_urban rail rail_electric rail_fast ship"/>
    <edge id="-115881039" from="1307952790" to="1307952754" priority="4" type="highway.residential" numLanes="2" speed="13.89" shape="215539.56,451023.91 215543.45,450924.25 215544.19,450917.90 215546.83,450912.14 215550.63,450908.22 215555.57,450905.32 215562.54,450904.00 215568.27,450905.10 215572.72,450907.88 215575.28,450911.10 215576.00,450916.00 215572.25,451007.54">
        <lane index="0" allow="pedestrian" width="2.00"/>
        <lane index="1" disallow="pedestrian tram rail_urban rail rail_electric rail_fast ship"/>
    </edge>
    <edge id="-115881041#0" from="1328156421" to="1307952714" priority="4" type="highway.residential" numLanes="2" speed="8.33">
        <lane index="0" allow="pedestrian" width="2.00"/>
        <lane index="1" disallow="pedestrian tram rail_urban rail rail_electric rail_fast ship"/>
    </edge>
    <edge id="-115881041#3" from="1328156536" to="1328156421" priority="4" type="highway.residential" numLanes="2" speed="8.33" shape="215300.28,450696.01 215329.84,450678.92 215427.81,450621.94 215452.74,450607.44">
        <lane index="0" allow="pedestrian" width="2.00"/>
        <lane index="1" disallow="pedestrian tram rail_urban rail rail_electric rail_fast ship"/>
    </edge>
    <edge id="-115881041#4" from="cluster_1307952767_4566694465" to="1328156536" priority="4" type="highway.residential" numLanes="2" speed="8.33" shape="215229.94,450736.14 215300.28,450696.01">
        <lane index="0" allow="pedestrian" width="2.00"/>
        <lane index="1" disallow="pedestrian tram rail_urban rail rail_electric rail_fast ship"/>
    </edge>
    <edge id="-115881043#0" from="1307952721" to="1307952716" priority="4" type="highway.residential" numLanes="2" speed="13.89">
        <lane index="0" allow="pedestrian" width="2.00"/>
        <lane index="1" disallow="pedestrian tram rail_urban rail rail_electric rail_fast ship"/>
    </edge>
    <edge id="-115881043#10" from="1307952772" to="1307952742" priority="4" type="highway.residential" numLanes="2" speed="13.89" shape="215763.49,451161.51 215760.83,451154.65 215749.80,451126.13 215742.39,451105.25 215737.17,451090.55 215723.59,451060.16 215707.29,451029.08 215692.88,451007.03 215681.66,450993.60 215672.96,450986.47">
        <lane index="0" allow="pedestrian" width="2.00"/>
        <lane index="1" disallow="pedestrian tram rail_urban rail rail_electric rail_fast ship"/>
    </edge>
    <edge id="-115881043#2" from="1307952790" to="1307952721" priority="4" type="highway.residential" numLanes="2" speed="13.89" shape="215539.56,451023.91 215513.04,451037.00 215508.00,451039.49">
        <lane index="0" allow="pedestrian" width="2.00"/>
        <lane index="1" disallow="pedestrian tram rail_urban rail rail_electric rail_fast ship"/>
    </edge>
    <edge id="-115881043#4" from="1307952754" to="1307952790" priority="4" type="highway.residential" numLanes="2" speed="13.89" shape="215572.25,451007.54 215549.68,451018.84 215539.56,451023.91">
        <lane index="0" allow="pedestrian" width="2.00"/>
        <lane index="1" disallow="pedestrian tram rail_urban rail rail_electric rail_fast ship"/>
    </edge>
    <edge id="-115881043#5" from="1307952723" to="1307952754" priority="4" type="highway.residential" numLanes="2" speed="13.89">
        <lane index="0" allow="pedestrian" width="2.00"/>
        <lane index="1" disallow="pedestrian tram rail_urban rail rail_electric rail_fast ship"/>
    </edge>
    <edge id="-115881043#6" from="2597081141" to="1307952723" priority="4" type="highway.residential" numLanes="2" speed="13.89">
        <lane index="0" allow="pedestrian" width="2.00"/>
        <lane index="1" disallow="pedestrian tram rail_urban rail rail_electric rail_fast ship"/>
    </edge>
    <edge id="-115881043#7" from="1307952732" to="2597081141" priority="4" type="highway.residential" numLanes="2" speed="13.89" shape="215651.38,450979.29 215644.12,450978.86 215637.66,450979.41">
        <lane index="0" allow="pedestrian" width="2.00"/>
        <lane index="1" disallow="pedestrian tram rail_urban rail rail_electric rail_fast ship"/>
    </edge>
    <edge id="-115881043#8" from="1307952742" to="1307952732" priority="4" type="highway.residential" numLanes="2" speed="13.89" shape="215672.96,450986.47 215663.16,450981.91 215651.38,450979.29">
        <lane index="0" allow="pedestrian" width="2.00"/>
        <lane index="1" disallow="pedestrian tram rail_urban rail rail_electric rail_fast ship"/>
    </edge>
    <edge id="-115881047" from="1307952746" to="1307952721" priority="4" type="highway.residential" numLanes="2" speed="13.89" shape="215522.01,450961.37 215514.15,450964.83 215511.64,450977.57 215508.00,451039.49">
        <lane index="0" allow="pedestrian" width="2.00"/>