<?xml version="1.0" encoding="UTF-8"?>

<!-- generated on 2022-06-27 17:06:06 by Eclipse SUMO netconvert Version 1.12.0
<configuration xmlns:xsi="http://www.w3.org/2001/XMLSchema-instance" xsi:noNamespaceSchemaLocation="http://sumo.dlr.de/xsd/netconvertConfiguration.xsd">

    <input>
        <sumo-net-file value="/home/lobo/Repository/RealFuture_repo/InTAS_RealFuture/scenario/InTAS.net.xml"/>
    </input>

    <output>
        <plain-output-prefix value="/home/lobo/Repository/RealFuture_repo/InTAS_RealFuture/scenario/InTAS"/>
    </output>

    <processing>
        <geometry.min-radius.fix.railways value="false"/>
        <geometry.max-grade.fix value="false"/>
        <offset.disable-normalization value="true"/>
        <roundabouts.guess value="false"/>
        <lefthand value="false"/>
    </processing>

    <junctions>
        <no-turnarounds value="true"/>
        <junctions.corner-detail value="5"/>
        <junctions.limit-turn-speed value="5.5"/>
        <rectangular-lane-cut value="false"/>
    </junctions>

    <pedestrian>
        <walkingareas value="false"/>
    </pedestrian>

    <report>
        <aggregate-warnings value="5"/>
    </report>

</configuration>
-->

<connections version="1.9" xmlns:xsi="http://www.w3.org/2001/XMLSchema-instance" xsi:noNamespaceSchemaLocation="http://sumo.dlr.de/xsd/connections_file.xsd">
    <connection from="-101238042"/>

    <connection from="-101731858" to="20588635#1" fromLane="1" toLane="1"/>
    <connection from="-101731858" to="-20588635#0" fromLane="1" toLane="1"/>

    <connection from="-102818928#0" to="-102818928#0.78" fromLane="1" toLane="1"/>
    <connection from="-102818928#0" to="-102818928#0.78" fromLane="1" toLane="2"/>

    <connection from="-102818928#0.78" to="201969576#0" fromLane="1" toLane="1"/>
    <connection from="-102818928#0.78" to="-61940355" fromLane="2" toLane="1"/>

    <connection from="-102818928#1" to="-102818928#0" fromLane="1" toLane="1"/>

    <connection from="-103396186" to="-32084380" fromLane="1" toLane="0"/>

    <connection from="-103512667#0" to="-145069347#2" fromLane="1" toLane="1"/>
    <connection from="-103512667#0" to="103512671" fromLane="1" toLane="1"/>
    <connection from="-103512667#0" to="145069291#0" fromLane="1" toLane="0"/>

    <connection from="-103512667#1" to="-145069287#7" fromLane="1" toLane="1"/>
    <connection from="-103512667#1" to="-103512667#0" fromLane="1" toLane="1"/>

    <connection from="-103512667#2" to="-103512667#1" fromLane="1" toLane="1"/>
    <connection from="-103512667#2" to="-103396186" fromLane="1" toLane="1"/>

    <connection from="-103671248" to="-145069357" fromLane="1" toLane="1"/>

    <connection from="-103671270" to="-293162564#3" fromLane="1" toLane="1"/>
    <connection from="-103671270" to="-4942659#1" fromLane="1" toLane="1"/>

    <connection from="-103671288" to="-52587775" fromLane="1" toLane="1"/>

    <connection from="-103718173" to="-27893434#1" fromLane="1" toLane="1"/>

    <connection from="-104010328" to="25145013#1" fromLane="1" toLane="1"/>
    <connection from="-104010328" to="-25145012#6" fromLane="1" toLane="1"/>
    <connection from="-104010328" to="-25145013#0" fromLane="1" toLane="1"/>

    <connection from="-10425532#5" to="138396693#0" fromLane="1" toLane="1"/>
    <connection from="-10425532#5" to="-447569998#1" fromLane="1" toLane="2"/>

    <connection from="-10425610#2" to="-102818928#1" fromLane="1" toLane="1"/>
    <connection from="-10425610#2" to="389831364" fromLane="2" toLane="2"/>

    <connection from="-10425611#0" to="-10425611#0.35" fromLane="1" toLane="1"/>
    <connection from="-10425611#0" to="-10425611#0.35" fromLane="2" toLane="2"/>

    <connection from="-10425611#0.35" to="4324827#0" fromLane="1" toLane="1"/>
    <connection from="-10425611#0.35" to="-164051429#1" fromLane="1" toLane="1"/>
    <connection from="-10425611#0.35" to="-164051429#1" fromLane="2" toLane="2"/>

    <connection from="-10425611#1" to="-10425611#0" fromLane="1" toLane="1"/>
    <connection from="-10425611#1" to="-10425611#0" fromLane="2" toLane="2"/>

    <connection from="-10425743" to="156788416#1" fromLane="1" toLane="1"/>
    <connection from="-10425743" to="156788416#1" fromLane="1" toLane="2"/>
    <connection from="-10425743" to="-627181818#1" fromLane="2" toLane="1"/>
    <connection from="-10425743" to="-627181818#1" fromLane="2" toLane="2"/>

    <connection from="-10427552" to="26288509#0" fromLane="1" toLane="1"/>
    <connection from="-10427552" to="23291836" fromLane="1" toLane="1"/>

    <connection from="-10427692#1" to="-285549250#1" fromLane="1" toLane="1"/>
    <connection from="-10427692#1" to="18809672#0" fromLane="1" toLane="1"/>
    <connection from="-10427692#1" to="201963533#0" fromLane="2" toLane="1"/>

    <connection from="-10427692#2" to="-10427692#1" fromLane="1" toLane="1"/>
    <connection from="-10427692#2" to="-10427692#1" fromLane="1" toLane="2"/>

    <connection from="-10427692#3" to="-10427692#2" fromLane="1" toLane="1"/>

    <connection from="-10427692#4" to="-10427692#3" fromLane="1" toLane="1"/>

    <connection from="-10427692#5" to="-10427692#4" fromLane="1" toLane="1"/>
    <connection from="-10427692#5" to="24634516#0" fromLane="1" toLane="1"/>

    <connection from="-10427692#6" to="-10427692#5" fromLane="1" toLane="1"/>

    <connection from="-10427692#7" to="-10427692#6" fromLane="1" toLane="1"/>

    <connection from="-10427692#8" to="-10427692#7" fromLane="1" toLane="1"/>

    <connection from="-105482066" to="-108310253" fromLane="1" toLane="1"/>
    <connection from="-105482066" to="104236369" fromLane="1" toLane="1"/>

    <connection from="-10597454#1" to="-168249926#1" fromLane="1" toLane="1"/>
    <connection from="-10597454#1" to="-207091116#1" fromLane="1" toLane="1"/>
    <connection from="-10597454#1" to="29027936#0" fromLane="2" toLane="2"/>

    <connection from="-10597454#2" to="-10597454#1" fromLane="1" toLane="1"/>
    <connection from="-10597454#2" to="-10597454#1" fromLane="1" toLane="2"/>

    <connection from="-10597455#2" to="-39444747" fromLane="1" toLane="1"/>
    <connection from="-10597455#2" to="201078447#0" fromLane="1" toLane="1"/>

    <connection from="-106294154" to="35894310#8" fromLane="1" toLane="1"/>
    <connection from="-106294154" to="-35894310#7" fromLane="1" toLane="1"/>

    <connection from="-107431496#1" to="-164051417#1" fromLane="1" toLane="1"/>

    <connection from="-107431496#3" to="-107431496#1" fromLane="1" toLane="1"/>

    <connection from="-107431496#4" to="93128019#0" fromLane="1" toLane="1"/>
    <connection from="-107431496#4" to="-107431496#3" fromLane="1" toLane="1"/>

    <connection from="-107671228" to="gneE212" fromLane="1" toLane="1"/>
    <connection from="-107671228" to="77912241" fromLane="1" toLane="1"/>

    <connection from="-108239224#1" to="108239224#0" fromLane="1" toLane="1"/>

    <connection from="-108310252" to="32230724" fromLane="1" toLane="1"/>
    <connection from="-108310252" to="-108310253" fromLane="1" toLane="1"/>

    <connection from="-108310253" to="168434696" fromLane="1" toLane="1"/>
    <connection from="-108310253" to="-29458096" fromLane="1" toLane="1"/>
    <connection from="-108310253" to="-29458096" fromLane="1" toLane="2"/>
    <connection from="-108310253" to="145069350#0" fromLane="1" toLane="1"/>

    <connection from="-109483355" to="148529632#0" fromLane="1" toLane="1"/>
    <connection from="-109483355" to="-164051431#1" fromLane="1" toLane="1"/>
    <connection from="-109483355" to="-27998676#3" fromLane="1" toLane="1"/>

    <connection from="-11014139#1" to="-32009683#1" fromLane="1" toLane="1"/>
    <connection from="-11014139#1" to="145069303#0" fromLane="2" toLane="1"/>

    <connection from="-110750646#0" to="-110750646#3" fromLane="1" toLane="1"/>

    <connection from="-110750646#1" to="-110750646#0" fromLane="1" toLane="1"/>

    <connection from="-110750646#2" to="-110750646#1" fromLane="1" toLane="1"/>

    <connection from="-110750646#3" to="-110750646#2" fromLane="1" toLane="1"/>
    <connection from="-110750646#3" to="23623713#0" fromLane="1" toLane="1"/>

    <connection from="-110750652"/>

    <connection from="-112979065#1" to="30136341#1" fromLane="1" toLane="1"/>
    <connection from="-112979065#1" to="-30136341#0" fromLane="1" toLane="1"/>

    <connection from="-112979080" to="27872584#0" fromLane="1" toLane="1"/>
    <connection from="-112979080" to="27825202#0" fromLane="1" toLane="1"/>

    <connection from="-113566916#0" to="113566910" fromLane="1" toLane="1"/>

    <connection from="-113566916#10" to="-26334880" fromLane="1" toLane="1"/>
    <connection from="-113566916#10" to="-113566916#7" fromLane="1" toLane="1"/>

    <connection from="-113566916#11" to="-26334881#1" fromLane="1" toLane="1"/>
    <connection from="-113566916#11" to="-113566916#10" fromLane="1" toLane="1"/>

    <connection from="-113566916#7" to="26341401#0" fromLane="1" toLane="1"/>
    <connection from="-113566916#7" to="13" fromLane="1" toLane="1"/>
    <connection from="-113566916#7" to="-154400654#5" fromLane="1" toLane="1"/>

    <connection from="-114325481" to="-188740075#2" fromLane="0" toLane="0"/>
    <connection from="-114325481" to="188740075#3" fromLane="0" toLane="0"/>

    <connection from="-114325482" to="-23622520#1" fromLane="0" toLane="1"/>
    <connection from="-114325482" to="23622520#2" fromLane="0" toLane="1"/>

    <connection from="-115082348#0"/>

    <connection from="-115082348#2" to="110435735" fromLane="1" toLane="1"/>
    <connection from="-115082348#2" to="-115082348#0" fromLane="1" toLane="1"/>
    <connection from="-115082348#2" to="-115082348#0" fromLane="1" toLane="2"/>

    <connection from="-115082348#3" to="-115082348#2" fromLane="1" toLane="1"/>
    <connection from="-115082348#3" to="-25640093#7" fromLane="1" toLane="1"/>

    <connection from="-115082348#5" to="25901682" fromLane="1" toLane="1"/>
    <connection from="-115082348#5" to="-115082348#3" fromLane="1" toLane="1"/>

    <connection from="-115082374#1" to="115082374#0" fromLane="0" toLane="0"/>

    <connection from="-115881035#0" to="115881035#0" fromLane="0" toLane="0"/>

    <connection from="-115881035#8" to="-115881035#0" fromLane="0" toLane="0"/>
    <connection from="-115881035#8" to="-118004624#1" fromLane="0" toLane="0"/>

    <connection from="-115881039" to="115881043#5" fromLane="1" toLane="1"/>
    <connection from="-115881039" to="-115881043#4" fromLane="1" toLane="1"/>

    <connection from="-115881041#0" to="-58622231#5" fromLane="1" toLane="1"/>
    <connection from="-115881041#0" to="58622231#6" fromLane="1" toLane="1"/>
    <connection from="-115881041#0" to="115881041#0" fromLane="1" toLane="1"/>

    <connection from="-115881041#3" to="118004624#0" fromLane="1" toLane="0"/>
    <connection from="-115881041#3" to="-115881041#0" fromLane="1" toLane="1"/>
    <connection from="-115881041#3" to="115881041#1" fromLane="1" toLane="1"/>

    <connection from="-115881041#4" to="-115881035#8" fromLane="1" toLane="0"/>
    <connection from="-115881041#4" to="-115881041#3" fromLane="1" toLane="1"/>

    <connection from="-115881043#0" to="-140834255#1" fromLane="1" toLane="1"/>
    <connection from="-115881043#0" to="201953160#0" fromLane="1" toLane="1"/>

    <connection from="-115881043#10" to="-115881043#8" fromLane="1" toLane="1"/>
    <connection from="-115881043#10" to="115881048#0" fromLane="1" toLane="1"/>

    <connection from="-115881043#2" to="-115881043#0" fromLane="1" toLane="1"/>
    <connection from="-115881043#2" to="115881047" fromLane="1" toLane="1"/>

    <connection from="-115881043#4" to="-115881043#2" fromLane="1" toLane="1"/>
    <connection from="-115881043#4" to="-115881039" fromLane="1" toLane="1"/>

    <connection from="-115881043#5" to="-115881043#4" fromLane="1" toLane="1"/>
    <connection from="-115881043#5" to="115881039" fromLane="1" toLane="1"/>

    <connection from="-115881043#6" to="-115881043#5" fromLane="1" toLane="1"/>
    <connection from="-115881043#6" to="-115881049#2" fromLane="1" toLane="1"/>

    <connection from="-115881043#7" to="-115881043#6" fromLane="1" toLane="1"/>

    <connection from="-115881043#8" to="-115881043#7" fromLane="1" toLane="1"/>
    <connection from="-115881043#8" to="115881050" fromLane="1" toLane="1"/>

    <connection from="-115881047" to="115881043#1" fromLane="1" toLane="1"/>
    <connection from="-115881047" to="-115881043#0" fromLane="1" toLane="1"/>

    <connection from="-115881048#0" to="115881043#9" fromLane="1" toLane="1"/>
    <connection from="-115881048#0" to="-115881043#8" fromLane="1" toLane="1"/>

    <connection from="-115881048#1" to="-115881048#0" fromLane="1" toLane="1"/>
    <connection from="-115881048#1" to="115881049#0" fromLane="1" toLane="1"/>

    <connection from="-115881049#0" to="115881048#1" fromLane="1" toLane="1"/>
    <connection from="-115881049#0" to="-115881048#0" fromLane="1" toLane="1"/>

    <connection from="-115881049#2" to="-115881049#0" fromLane="1" toLane="1"/>
    <connection from="-115881049#2" to="-115881050" fromLane="1" toLane="1"/>

    <connection from="-115881050" to="115881043#8" fromLane="1" toLane="1"/>
    <connection from="-115881050" to="-115881043#7" fromLane="1" toLane="1"/>

    <connection from="-116391311" to="-174324270#4" fromLane="1" toLane="1"/>

    <connection from="-116391315#0" to="-116391311" fromLane="1" toLane="1"/>

    <connection from="-116391315#1" to="24495565#0" fromLane="1" toLane="0"/>
    <connection from="-116391315#1" to="-116391315#0" fromLane="1" toLane="1"/>

    <connection from="-116765451#2" to="-200949176#1" fromLane="1" toLane="1"/>
    <connection from="-116765451#2" to="-200949176#1" fromLane="2" toLane="2"/>

    <connection from="-116765451#3" to="-116765451#2" fromLane="1" toLane="1"/>
    <connection from="-116765451#3" to="-116765451#2" fromLane="2" toLane="2"/>

    <connection from="-116765457#0" to="-137463475#1" fromLane="1" toLane="1"/>
    <connection from="-116765457#0" to="-137463475#1" fromLane="2" toLane="2"/>

    <connection from="-118004624#1" to="-115881041#0" fromLane="0" toLane="1"/>
    <connection from="-118004624#1" to="115881041#1" fromLane="0" toLane="1"/>
    <connection from="-118004624#1" to="118004624#0" fromLane="0" toLane="0"/>

    <connection from="-118004640#5" to="589179144" fromLane="1" toLane="1"/>
    <connection from="-118004640#5" to="-266887589#2" fromLane="1" toLane="2"/>

    <connection from="-118604361#0" to="-118607487#0" fromLane="0" toLane="1"/>

    <connection from="-118604361#1" to="-118604361#0" fromLane="0" toLane="0"/>

    <connection from="-118607487#0" to="-92026769#0" fromLane="1" toLane="1"/>
    <connection from="-118607487#0" to="32350901#1" fromLane="1" toLane="1"/>
    <connection from="-118607487#0" to="92026769#1" fromLane="1" toLane="1"/>

    <connection from="-120125554" to="-24634516#2" fromLane="1" toLane="1"/>

    <connection from="-121549474" to="22486112#4" fromLane="1" toLane="1"/>
    <connection from="-121549474" to="-22486112#3" fromLane="1" toLane="1"/>

    <connection from="-124194339#0" to="29205272#11" fromLane="1" toLane="1"/>
    <connection from="-124194339#0" to="-29205273#9" fromLane="1" toLane="1"/>
    <connection from="-124194339#0" to="-29205272#10" fromLane="1" toLane="1"/>

    <connection from="-124194339#1" to="-124194339#0" fromLane="1" toLane="1"/>

    <connection from="-124881388#0"/>

    <connection from="-124881388#1" to="-124881388#0" fromLane="0" toLane="0"/>

    <connection from="-125002584#1" to="125002601#0" fromLane="0" toLane="0"/>

    <connection from="-125002584#2" to="-125002584#1" fromLane="0" toLane="0"/>

    <connection from="-125014857" to="-60773453#1" fromLane="1" toLane="1"/>
    <connection from="-125014857" to="60773453#2" fromLane="1" toLane="1"/>

    <connection from="-126909931" to="-126909931.208" fromLane="1" toLane="1"/>
    <connection from="-126909931" to="-126909931.208" fromLane="1" toLane="2"/>
    <connection from="-126909931" to="-126909931.208" fromLane="2" toLane="3"/>

    <connection from="-126909931.208" to="-25508272#0" fromLane="1" toLane="1"/>
    <connection from="-126909931.208" to="-25508272#0" fromLane="2" toLane="2"/>
    <connection from="-126909931.208" to="-25508272#0" fromLane="3" toLane="3"/>

    <connection from="-126909938" to="-614568192" fromLane="1" toLane="1"/>

    <connection from="-127076886" to="-28161026#3" fromLane="1" toLane="1"/>
    <connection from="-127076886" to="28161026#4" fromLane="1" toLane="1"/>

    <connection from="-127076894#1" to="23422659" fromLane="1" toLane="1"/>
    <connection from="-127076894#1" to="-201828014#4" fromLane="1" toLane="1"/>

    <connection from="-127076894#2" to="-65047492" fromLane="1" toLane="1"/>
    <connection from="-127076894#2" to="-127076894#1" fromLane="1" toLane="1"/>

    <connection from="-128070665#0" to="-128070665#0.47" fromLane="0" toLane="0"/>
    <connection from="-128070665#0" to="-128070665#0.47" fromLane="0" toLane="1"/>
    <connection from="-128070665#0" to="-128070665#0.47" fromLane="0" toLane="2"/>

    <connection from="-128070665#0.47" to="128070668#0" fromLane="0" toLane="0"/>
    <connection from="-128070665#0.47" to="-128070667#1" fromLane="1" toLane="0"/>
    <connection from="-128070665#0.47" to="-128070667#1" fromLane="2" toLane="1"/>

    <connection from="-128070665#1" to="-128070665#0" fromLane="0" toLane="0"/>

    <connection from="-128070666#0" to="-72562672" fromLane="0" toLane="0"/>
    <connection from="-128070666#0" to="-72562672" fromLane="1" toLane="1"/>

    <connection from="-128070666#1" to="-128070666#0" fromLane="0" toLane="0"/>
    <connection from="-128070666#1" to="-128070666#0" fromLane="1" toLane="1"/>

    <connection from="-128070667#0" to="-128070666#1" fromLane="0" toLane="0"/>
    <connection from="-128070667#0" to="-128070666#1" fromLane="1" toLane="1"/>
    <connection from="-128070667#0" to="150746361#0" fromLane="1" toLane="0"/>

    <connection from="-128070667#1" to="-128070667#0" fromLane="0" toLane="0"/>
    <connection from="-128070667#1" to="-128070667#0" fromLane="1" toLane="1"/>

    <connection from="-128361102#1" to="128361107#0" fromLane="1" toLane="1"/>
    <connection from="-128361102#1" to="23623674#0" fromLane="1" toLane="1"/>

    <connection from="-128668759#0" to="-45378204#1" fromLane="1" toLane="1"/>

    <connection from="-128668759#2" to="-128668759#0" fromLane="1" toLane="1"/>
    <connection from="-128668759#2" to="-25638621" fromLane="1" toLane="1"/>

    <connection from="-129379918#1" to="447569997#0" fromLane="1" toLane="1"/>
    <connection from="-129379918#1" to="-315358252#1" fromLane="1" toLane="1"/>
    <connection from="-129379918#1" to="-315358252#1" fromLane="2" toLane="2"/>

    <connection from="-129379920#0" to="-129379921#1" fromLane="1" toLane="1"/>
    <connection from="-129379920#0" to="-129379921#1" fromLane="2" toLane="2"/>
    <connection from="-129379920#0" to="-129379921#1" fromLane="3" toLane="3"/>
    <connection from="-129379920#0" to="40888443" fromLane="3" toLane="1"/>

    <connection from="-129379920#1" to="-129379920#0" fromLane="1" toLane="1"/>
    <connection from="-129379920#1" to="-129379920#0" fromLane="2" toLane="2"/>
    <connection from="-129379920#1" to="-129379920#0" fromLane="3" toLane="3"/>

    <connection from="-129379921#0" to="-315358250#1" fromLane="1" toLane="1"/>
    <connection from="-129379921#0" to="-315358250#1" fromLane="2" toLane="2"/>
    <connection from="-129379921#0" to="129379968" fromLane="3" toLane="1"/>

    <connection from="-129379921#1" to="-129379921#0" fromLane="1" toLane="1"/>
    <connection from="-129379921#1" to="-129379921#0" fromLane="2" toLane="2"/>
    <connection from="-129379921#1" to="-129379921#0" fromLane="3" toLane="3"/>

    <connection from="-129379922" to="25117417#0" fromLane="1" toLane="0"/>
    <connection from="-129379922" to="-315358246" fromLane="1" toLane="1"/>
    <connection from="-129379922" to="-315358246" fromLane="2" toLane="2"/>

    <connection from="-129379923" to="-315358243" fromLane="1" toLane="1"/>
    <connection from="-129379923" to="-315358243" fromLane="2" toLane="2"/>
    <connection from="-129379923" to="-108239224#1" fromLane="3" toLane="1"/>

    <connection from="-129379925" to="-129379918#1" fromLane="1" toLane="1"/>
    <connection from="-129379925" to="-129379918#1" fromLane="2" toLane="2"/>
    <connection from="-129379925" to="-40888351#6" fromLane="3" toLane="1"/>

    <connection from="-129778904#0" to="-26135509" fromLane="1" toLane="1"/>

    <connection from="-129778904#1" to="25665421#2" fromLane="1" toLane="1"/>
    <connection from="-129778904#1" to="-129778904#0" fromLane="1" toLane="1"/>
    <connection from="-129778904#1" to="-25665421#1" fromLane="1" toLane="1"/>

    <connection from="-129778904#2" to="-129778904#1" fromLane="1" toLane="1"/>
    <connection from="-129778904#2" to="-26134440#4" fromLane="1" toLane="1"/>

    <connection from="-129778904#3" to="-26134457" fromLane="1" toLane="1"/>
    <connection from="-129778904#3" to="-129778904#2" fromLane="1" toLane="1"/>

    <connection from="-130185484#1" to="-148529633" fromLane="0" toLane="1"/>
    <connection from="-130185484#1" to="82628434" fromLane="0" toLane="1"/>

    <connection from="-130185484#2" to="-130185484#1" fromLane="0" toLane="0"/>
    <connection from="-130185484#2" to="42674135#0" fromLane="0" toLane="0"/>

    <connection from="-130185486#0" to="-148529632#0" fromLane="1" toLane="1"/>
    <connection from="-130185486#0" to="148529632#1" fromLane="1" toLane="1"/>

    <connection from="-130185486#1" to="23623685" fromLane="1" toLane="1"/>
    <connection from="-130185486#1" to="-130185486#0" fromLane="1" toLane="1"/>

    <connection from="-130185486#2" to="-130185486#1" fromLane="1" toLane="1"/>
    <connection from="-130185486#2" to="-23623692#2" fromLane="1" toLane="1"/>

    <connection from="-130185488#0" to="29146979#0" fromLane="1" toLane="1"/>
    <connection from="-130185488#0" to="-136728344#5" fromLane="2" toLane="1"/>

    <connection from="-130185488#2" to="-130185488#0" fromLane="1" toLane="1"/>
    <connection from="-130185488#2" to="-130185488#0" fromLane="1" toLane="2"/>

    <connection from="-130185488#3" to="-130185488#2" fromLane="1" toLane="1"/>

    <connection from="-130996521#1" to="-379723624#1" fromLane="1" toLane="1"/>
    <connection from="-130996521#1" to="-379723624#1" fromLane="1" toLane="2"/>
    <connection from="-130996521#1" to="130996518#0" fromLane="1" toLane="2"/>

    <connection from="-130996521#2" to="-130996521#1" fromLane="1" toLane="1"/>
    <connection from="-130996521#2" to="130996521#2" fromLane="1" toLane="1"/>

    <connection from="-131700656" to="-26135517" fromLane="0" toLane="1"/>

    <connection from="-131722033"/>

    <connection from="-131724119#0" to="-37255678#0" fromLane="1" toLane="1"/>
    <connection from="-131724119#0" to="-392714149" fromLane="1" toLane="1"/>
    <connection from="-131724119#0" to="37255678#1" fromLane="1" toLane="1"/>

    <connection from="-131724119#1" to="-131724119#0" fromLane="1" toLane="1"/>
    <connection from="-131724119#1" to="41106945" fromLane="1" toLane="1"/>

    <connection from="-131724119#2" to="-37255677" fromLane="1" toLane="1"/>
    <connection from="-131724119#2" to="-131724119#1" fromLane="1" toLane="1"/>

    <connection from="-131724119#3" to="-37255676" fromLane="1" toLane="1"/>
    <connection from="-131724119#3" to="-131724119#2" fromLane="1" toLane="1"/>

    <connection from="-131724119#5" to="-37255675#2" fromLane="1" toLane="1"/>
    <connection from="-131724119#5" to="-131724119#3" fromLane="1" toLane="1"/>

    <connection from="-131724120#0" to="-37255678#2" fromLane="1" toLane="1"/>
    <connection from="-131724120#0" to="-37255731#3" fromLane="1" toLane="1"/>
    <connection from="-131724120#0" to="37255678#3" fromLane="1" toLane="1"/>

    <connection from="-131724120#1" to="-131724120#0" fromLane="1" toLane="1"/>

    <connection from="-136436466" to="-315358251#1" fromLane="1" toLane="1"/>
    <connection from="-136436466" to="-315358251#1" fromLane="2" toLane="2"/>
    <connection from="-136436466" to="386687242" fromLane="3" toLane="1"/>
    <connection from="-136436466" to="386687242" fromLane="3" toLane="2"/>

    <connection from="-136436468#0"/>

    <connection from="-136436468#2" to="-136436468#0" fromLane="1" toLane="1"/>
    <connection from="-136436468#2" to="26677213#0" fromLane="1" toLane="1"/>

    <connection from="-136618613#0" to="-35744086#2" fromLane="1" toLane="1"/>
    <connection from="-136618613#0" to="8033457#0" fromLane="2" toLane="0"/>

    <connection from="-136618613#1" to="-136618613#0" fromLane="1" toLane="1"/>
    <connection from="-136618613#1" to="-136618613#0" fromLane="2" toLane="2"/>

    <connection from="-136618616" to="37255739#3" fromLane="1" toLane="1"/>
    <connection from="-136618616" to="-37255739#2" fromLane="1" toLane="1"/>

    <connection from="-136728344#0" to="-40879982#2" fromLane="1" toLane="1"/>
    <connection from="-136728344#0" to="-266561177#1" fromLane="1" toLane="1"/>
    <connection from="-136728344#0" to="-23623717" fromLane="1" toLane="1"/>

    <connection from="-136728344#2" to="-396370774#3" fromLane="1" toLane="1" uncontrolled="1"/>
    <connection from="-136728344#2" to="-136728344#0" fromLane="2" toLane="1" uncontrolled="1"/>

    <connection from="-136728344#3" to="-136728344#2" fromLane="1" toLane="1"/>
    <connection from="-136728344#3" to="-136728344#2" fromLane="1" toLane="2"/>

    <connection from="-136728344#4" to="-26642309#3" fromLane="1" toLane="1"/>
    <connection from="-136728344#4" to="-136728344#3" fromLane="1" toLane="1"/>
    <connection from="-136728344#4" to="-115082374#1" fromLane="2" toLane="0"/>

    <connection from="-136728344#5" to="-136728344#4" fromLane="1" toLane="1"/>
    <connection from="-136728344#5" to="-136728344#4" fromLane="1" toLane="2"/>

    <connection from="-136728347#4" to="-201963533#5" fromLane="1" toLane="1"/>
    <connection from="-136728347#4" to="-26642362#5" fromLane="1" toLane="1"/>

    <connection from="-136728351#0" to="-136728366#1" fromLane="0" toLane="1"/>

    <connection from="-136728351#4" to="-136728351#0" fromLane="0" toLane="0"/>
    <connection from="-136728351#4" to="41203193" fromLane="0" toLane="0"/>

    <connection from="-136728353" to="-37255672" fromLane="1" toLane="1"/>

    <connection from="-136728366#0" to="-33102205#3" fromLane="1" toLane="0"/>

    <connection from="-136728366#1" to="-151167738#0" fromLane="1" toLane="1"/>
    <connection from="-136728366#1" to="-136728366#0" fromLane="1" toLane="1"/>
    <connection from="-136728366#1" to="151167738#1" fromLane="1" toLane="1"/>

    <connection from="-136888519#0" to="133765794#0" fromLane="0" toLane="0"/>

    <connection from="-136888519#1" to="-136888519#0" fromLane="0" toLane="0"/>

    <connection from="-136888525#0"/>

    <connection from="-136900855" to="25344452#0" fromLane="1" toLane="1"/>
    <connection from="-136900855" to="-103671270" fromLane="1" toLane="1"/>

    <connection from="-137132992#2" to="137132997" fromLane="1" toLane="1"/>

    <connection from="-137246371#1" to="-138002149#2" fromLane="1" toLane="1"/>
    <connection from="-137246371#1" to="174645624" fromLane="2" toLane="1"/>

    <connection from="-137246371#2" to="-137246371#1" fromLane="1" toLane="1"/>
    <connection from="-137246371#2" to="-137246371#1" fromLane="2" toLane="2"/>

    <connection from="-137454133#0" to="-224892361#6" fromLane="1" toLane="1"/>
    <connection from="-137454133#0" to="224892361#7" fromLane="2" toLane="2"/>

    <connection from="-137454133#1" to="-137454133#0" fromLane="1" toLane="1"/>
    <connection from="-137454133#1" to="-137454133#0" fromLane="2" toLane="2"/>

    <connection from="-137454133#5" to="-137454133#1" fromLane="1" toLane="1"/>
    <connection from="-137454133#5" to="-137454133#1" fromLane="1" toLane="2"/>

    <connection from="-137463474#0" to="137463478#0" fromLane="1" toLane="1"/>
    <connection from="-137463474#0" to="25796398#0" fromLane="1" toLane="1"/>
    <connection from="-137463474#0" to="25796398#0" fromLane="1" toLane="2"/>
    <connection from="-137463474#0" to="25796398#0" fromLane="1" toLane="3"/>

    <connection from="-137463474#1" to="25797315#0" fromLane="1" toLane="1"/>
    <connection from="-137463474#1" to="-137463474#0" fromLane="1" toLane="1"/>

    <connection from="-137463475#1" to="137463477#0" fromLane="1" toLane="1"/>
    <connection from="-137463475#1" to="137463477#0" fromLane="2" toLane="2"/>
    <connection from="-137463475#1" to="137463477#0" fromLane="2" toLane="3"/>

    <connection from="-137463478#0" to="25796398#0" fromLane="1" toLane="1"/>
    <connection from="-137463478#0" to="25796398#0" fromLane="1" toLane="2"/>
    <connection from="-137463478#0" to="25796398#0" fromLane="1" toLane="3"/>
    <connection from="-137463478#0" to="137463474#0" fromLane="1" toLane="1"/>

    <connection from="-137463478#1" to="-137463478#0" fromLane="1" toLane="1"/>

    <connection from="-137463478#2" to="-137463478#1" fromLane="1" toLane="1"/>
    <connection from="-137463478#2" to="-32202927#2" fromLane="1" toLane="1"/>

    <connection from="-137463478#3" to="29238187#0" fromLane="1" toLane="1"/>
    <connection from="-137463478#3" to="-137463478#2" fromLane="1" toLane="1"/>
    <connection from="-137463478#3" to="-25797433#3" fromLane="1" toLane="1"/>

    <connection from="-137672872" to="-611319827" fromLane="0" toLane="0"/>

    <connection from="-137672879" to="-35960028#0" fromLane="0" toLane="1"/>

    <connection from="-137685135" to="-51856496#7" fromLane="1" toLane="1"/>
    <connection from="-137685135" to="32202011#0" fromLane="1" toLane="1"/>

    <connection from="-138002149#0" to="-32021408" fromLane="1" toLane="1"/>