<?xml version="1.0" encoding="UTF-8"?>

<!-- generated on Mi 17 Nov 2021 17:33:30 CET by Eclipse SUMO netedit Version 1.4.0
<configuration xmlns:xsi="http://www.w3.org/2001/XMLSchema-instance" xsi:noNamespaceSchemaLocation="http://sumo.dlr.de/xsd/netconvertConfiguration.xsd">

    <input>
        <sumo-net-file value="/home/intas/INTAS/InTAS_RealFuture/scenario/ingolstadt.net.xml"/>
    </input>

    <output>
        <output-file value="/home/intas/INTAS/InTAS_RealFuture/scenario/ingolstadt.net.xml"/>
    </output>

    <processing>
        <geometry.min-radius.fix.railways value="false"/>
        <geometry.max-grade.fix value="false"/>
        <offset.disable-normalization value="true"/>
        <lefthand value="false"/>
    </processing>

    <junctions>
        <no-turnarounds value="true"/>
        <junctions.corner-detail value="5"/>
        <junctions.limit-turn-speed value="5.5"/>
        <rectangular-lane-cut value="false"/>
    </junctions>

    <pedestrian>
        <walkingareas value="false"/>
    </pedestrian>

    <netedit>
        <additional-files value="/home/intas/INTAS/InTAS_RealFuture/scenario/taz.xml.add.xml"/>
    </netedit>

    <report>
        <aggregate-warnings value="5"/>
    </report>

</configuration>
-->

<additional xmlns:xsi="http://www.w3.org/2001/XMLSchema-instance" xsi:noNamespaceSchemaLocation="http://sumo.dlr.de/xsd/additional_file.xsd">
    <taz id="taz_0" shape="214839.23,451271.90 214886.37,451075.90 214878.93,451006.43 214856.60,450882.37 214859.19,450669.28 214781.17,450521.02 214739.42,450346.17 214623.05,450346.17 214563.47,450347.00 214449.76,450343.85 214380.17,450325.96 214361.29,450266.32 214300.34,450197.14 214293.20,450189.89 214288.21,450180.13 214225.31,450048.65 214209.65,450017.89 214168.49,449981.24 214118.28,449948.64 214078.54,449924.37 214033.56,449911.52 213987.75,449909.14 213720.01,449991.86 213687.43,450009.49 213602.07,450060.84 213423.44,450202.16 213612.58,450235.79 213744.99,450257.85 213870.04,450368.20 213950.96,450375.55 214017.17,450463.83 214179.00,450677.15 214215.78,450802.21 214384.97,451008.18 214568.87,451081.74 214627.72,451199.43 214796.91,451280.35 214805.85,451291.52 214841.99,451267.49 214839.23,451271.90" color="blue">
        <tazSource id="-101238042" weight="1.00"/>
        <tazSource id="-102818928#0" weight="1.00"/>
        <tazSource id="-102818928#0.78" weight="1.00"/>
        <tazSource id="-102818928#1" weight="1.00"/>
        <tazSource id="-103396186" weight="1.00"/>
        <tazSource id="-103512667#0" weight="1.00"/>
        <tazSource id="-103512667#1" weight="1.00"/>
        <tazSource id="-103512667#2" weight="1.00"/>
        <tazSource id="-103671248" weight="1.00"/>
        <tazSource id="-103671288" weight="1.00"/>
        <tazSource id="-103718173" weight="1.00"/>
        <tazSource id="-10425610#2" weight="1.00"/>
        <tazSource id="-130996521#1" weight="1.00"/>
        <tazSource id="-130996521#2" weight="1.00"/>
        <tazSource id="-136728351#0" weight="1.00"/>
        <tazSource id="-136728351#4" weight="1.00"/>
        <tazSource id="-137685135" weight="1.00"/>
        <tazSource id="-145069278#2" weight="1.00"/>
        <tazSource id="-145069284" weight="1.00"/>
        <tazSource id="-145069287#7" weight="1.00"/>
        <tazSource id="-145069287#7.50" weight="1.00"/>
        <tazSource id="-145069294#1" weight="1.00"/>
        <tazSource id="-145069309" weight="1.00"/>
        <tazSource id="-145069316#0" weight="1.00"/>
        <tazSource id="-145069316#1" weight="1.00"/>
        <tazSource id="-145069320#1" weight="1.00"/>
        <tazSource id="-145069335#1" weight="1.00"/>
        <tazSource id="-145069335#3" weight="1.00"/>
        <tazSource id="-145069347#2" weight="1.00"/>
        <tazSource id="-145069357" weight="1.00"/>
        <tazSource id="-145069366#3" weight="1.00"/>
        <tazSource id="-145069369#1" weight="1.00"/>
        <tazSource id="-145069371#0" weight="1.00"/>
        <tazSource id="-145069371#1" weight="1.00"/>
        <tazSource id="-145069391" weight="1.00"/>
        <tazSource id="-155458987#0" weight="1.00"/>
        <tazSource id="-155458987#5" weight="1.00"/>
        <tazSource id="-156923526#2" weight="1.00"/>
        <tazSource id="-156923526#3" weight="1.00"/>
        <tazSource id="-161678033#0" weight="1.00"/>
        <tazSource id="-161678034#0" weight="1.00"/>
        <tazSource id="-168243632" weight="1.00"/>
        <tazSource id="-168245119#2" weight="1.00"/>
        <tazSource id="-174609517#3" weight="1.00"/>
        <tazSource id="-18909061#1" weight="1.00"/>
        <tazSource id="-201278214#1" weight="1.00"/>
        <tazSource id="-201278216#1" weight="1.00"/>
        <tazSource id="-201969576#0" weight="1.00"/>
        <tazSource id="-201969576#1" weight="1.00"/>
        <tazSource id="-201969576#4" weight="1.00"/>
        <tazSource id="-204388144#0" weight="1.00"/>
        <tazSource id="-204388144#1" weight="1.00"/>
        <tazSource id="-20975942#2" weight="1.00"/>
        <tazSource id="-20975943#0" weight="1.00"/>
        <tazSource id="-20975948#0" weight="1.00"/>
        <tazSource id="-20975948#1" weight="1.00"/>
        <tazSource id="-20975948#2" weight="1.00"/>
        <tazSource id="-20975950#0" weight="1.00"/>
        <tazSource id="-20975950#1" weight="1.00"/>
        <tazSource id="-224419108" weight="1.00"/>
        <tazSource id="-23184274#3" weight="1.00"/>
        <tazSource id="-23184317" weight="1.00"/>
        <tazSource id="-233673423" weight="1.00"/>
        <tazSource id="-24495188" weight="1.00"/>
        <tazSource id="-24598017" weight="1.00"/>
        <tazSource id="-24692328" weight="1.00"/>
        <tazSource id="-24733323#0" weight="1.00"/>
        <tazSource id="-24733323#2" weight="1.00"/>
        <tazSource id="-24872465" weight="1.00"/>
        <tazSource id="-24872530#1" weight="1.00"/>
        <tazSource id="-24872530#5" weight="1.00"/>
        <tazSource id="-24982688#1" weight="1.00"/>
        <tazSource id="-24982688#2" weight="1.00"/>
        <tazSource id="-24982688#4" weight="1.00"/>
        <tazSource id="-24983010#2" weight="1.00"/>
        <tazSource id="-25148803" weight="1.00"/>
        <tazSource id="-25148808" weight="1.00"/>
        <tazSource id="-25148889" weight="1.00"/>
        <tazSource id="-26334127#2" weight="1.00"/>
        <tazSource id="-26334127#3" weight="1.00"/>
        <tazSource id="-26334127#4" weight="1.00"/>
        <tazSource id="-26334127#7" weight="1.00"/>
        <tazSource id="-26334132#1" weight="1.00"/>
        <tazSource id="-26471752#1" weight="1.00"/>
        <tazSource id="-26471752#5" weight="1.00"/>
        <tazSource id="-26471752#5.18" weight="1.00"/>
        <tazSource id="-266607804#0" weight="1.00"/>
        <tazSource id="-266607804#1" weight="1.00"/>
        <tazSource id="-27827337" weight="1.00"/>
        <tazSource id="-27893434#0" weight="1.00"/>
        <tazSource id="-27893434#1" weight="1.00"/>
        <tazSource id="-28418764#0.109" weight="1.00"/>
        <tazSource id="-28418764#0.88" weight="1.00"/>
        <tazSource id="-28418764#1" weight="1.00"/>
        <tazSource id="-29458641" weight="1.00"/>
        <tazSource id="-29458645" weight="1.00"/>
        <tazSource id="-29458645.13" weight="1.00"/>
        <tazSource id="-29458645.28" weight="1.00"/>
        <tazSource id="-31362504#3" weight="1.00"/>
        <tazSource id="-32084380" weight="1.00"/>
        <tazSource id="-32200983#1" weight="1.00"/>
        <tazSource id="-32200983#6" weight="1.00"/>
        <tazSource id="-32201042" weight="1.00"/>
        <tazSource id="-32201044#0" weight="1.00"/>
        <tazSource id="-32201044#1" weight="1.00"/>
        <tazSource id="-32201044#2" weight="1.00"/>
        <tazSource id="-32201172" weight="1.00"/>
        <tazSource id="-32202011#1" weight="1.00"/>
        <tazSource id="-32226141#0" weight="1.00"/>
        <tazSource id="-32229976" weight="1.00"/>
        <tazSource id="-32234776#1" weight="1.00"/>
        <tazSource id="-32350852#0" weight="1.00"/>
        <tazSource id="-32350852#1" weight="1.00"/>
        <tazSource id="-32350852#3" weight="1.00"/>
        <tazSource id="-32350852#4" weight="1.00"/>
        <tazSource id="-32923863#1" weight="1.00"/>
        <tazSource id="-32923863#4" weight="1.00"/>
        <tazSource id="-32923867#0" weight="1.00"/>
        <tazSource id="-32923867#1" weight="1.00"/>
        <tazSource id="-32923867#2" weight="1.00"/>
        <tazSource id="-32923867#3" weight="1.00"/>
        <tazSource id="-32923867#4" weight="1.00"/>
        <tazSource id="-32998243#2" weight="1.00"/>
        <tazSource id="-32998243#3" weight="1.00"/>
        <tazSource id="-33102477" weight="1.00"/>
        <tazSource id="-33779209#2" weight="1.00"/>
        <tazSource id="-33814393#0" weight="1.00"/>
        <tazSource id="-33814393#1" weight="1.00"/>
        <tazSource id="-33814393#3" weight="1.00"/>
        <tazSource id="-37282688#1" weight="1.00"/>
        <tazSource id="-37282688#3" weight="1.00"/>
        <tazSource id="-37451605" weight="1.00"/>
        <tazSource id="-37649447#1" weight="1.00"/>
        <tazSource id="-379723624#0" weight="1.00"/>
        <tazSource id="-379723624#1" weight="1.00"/>
        <tazSource id="-38508400#1" weight="1.00"/>
        <tazSource id="-389831364" weight="1.00"/>
        <tazSource id="-390282481" weight="1.00"/>
        <tazSource id="-391208988" weight="1.00"/>
        <tazSource id="-39443315#0" weight="1.00"/>
        <tazSource id="-39443315#2" weight="1.00"/>
        <tazSource id="-39443316#2" weight="1.00"/>
        <tazSource id="-39649533" weight="1.00"/>
        <tazSource id="-41203193" weight="1.00"/>
        <tazSource id="-51856496#0" weight="1.00"/>
        <tazSource id="-51856496#1" weight="1.00"/>
        <tazSource id="-51856496#2" weight="1.00"/>
        <tazSource id="-51856496#3" weight="1.00"/>
        <tazSource id="-51856496#4" weight="1.00"/>
        <tazSource id="-51856496#5" weight="1.00"/>
        <tazSource id="-51856496#7" weight="1.00"/>
        <tazSource id="-51857519#1" weight="1.00"/>
        <tazSource id="-52513194" weight="1.00"/>
        <tazSource id="-52587775" weight="1.00"/>
        <tazSource id="-542617943" weight="1.00"/>
        <tazSource id="-61940355" weight="1.00"/>
        <tazSource id="-61940356" weight="1.00"/>
        <tazSource id="-62798408" weight="1.00"/>
        <tazSource id="-749560261" weight="1.00"/>
        <tazSource id="-749560273.32" weight="1.00"/>
        <tazSource id="-749560273.4" weight="1.00"/>
        <tazSource id="-749560274#1" weight="1.00"/>
        <tazSource id="-749560274#2" weight="1.00"/>
        <tazSource id="-749560275" weight="1.00"/>
        <tazSource id="-749560276" weight="1.00"/>
        <tazSource id="-825445496#1" weight="1.00"/>
        <tazSource id="-885513468#0" weight="1.00"/>
        <tazSource id="-885513468#1" weight="1.00"/>
        <tazSource id="101238042" weight="1.00"/>
        <tazSource id="102818925" weight="1.00"/>
        <tazSource id="102818928#1" weight="1.00"/>
        <tazSource id="103396186" weight="1.00"/>
        <tazSource id="103512667#0" weight="1.00"/>
        <tazSource id="103512667#1" weight="1.00"/>
        <tazSource id="103512667#2" weight="1.00"/>
        <tazSource id="103512671" weight="1.00"/>
        <tazSource id="103671248" weight="1.00"/>
        <tazSource id="103671288" weight="1.00"/>
        <tazSource id="103686113" weight="1.00"/>
        <tazSource id="103687353" weight="1.00"/>
        <tazSource id="103718178" weight="1.00"/>
        <tazSource id="103718186" weight="1.00"/>
        <tazSource id="10425610#0" weight="1.00"/>
        <tazSource id="10425803" weight="1.00"/>
        <tazSource id="130996518#0" weight="1.00"/>
        <tazSource id="130996520" weight="1.00"/>
        <tazSource id="130996520.58" weight="1.00"/>
        <tazSource id="130996521#2" weight="1.00"/>
        <tazSource id="131118448#0" weight="1.00"/>
        <tazSource id="131118448#1" weight="1.00"/>
        <tazSource id="131118468#0" weight="1.00"/>
        <tazSource id="131118468#0.16" weight="1.00"/>
        <tazSource id="131118468#1" weight="1.00"/>
        <tazSource id="131118468#3" weight="1.00"/>
        <tazSource id="131118468#4" weight="1.00"/>
        <tazSource id="136728351#0" weight="1.00"/>
        <tazSource id="136728351#1" weight="1.00"/>
        <tazSource id="145069268" weight="1.00"/>
        <tazSource id="145069270#0" weight="1.00"/>
        <tazSource id="145069270#2" weight="1.00"/>
        <tazSource id="145069278#0" weight="1.00"/>
        <tazSource id="145069280#0" weight="1.00"/>
        <tazSource id="145069284" weight="1.00"/>
        <tazSource id="145069286#0" weight="1.00"/>
        <tazSource id="145069287#0" weight="1.00"/>
        <tazSource id="145069287#0.136" weight="1.00"/>
        <tazSource id="145069291#0" weight="1.00"/>
        <tazSource id="145069291#2" weight="1.00"/>
        <tazSource id="145069294#0" weight="1.00"/>
        <tazSource id="145069296" weight="1.00"/>
        <tazSource id="145069298" weight="1.00"/>
        <tazSource id="145069304" weight="1.00"/>
        <tazSource id="145069309" weight="1.00"/>
        <tazSource id="145069311#0" weight="1.00"/>
        <tazSource id="145069313#0" weight="1.00"/>
        <tazSource id="145069313#2" weight="1.00"/>
        <tazSource id="145069316#0" weight="1.00"/>
        <tazSource id="145069316#1" weight="1.00"/>
        <tazSource id="145069320#1" weight="1.00"/>
        <tazSource id="145069325#0" weight="1.00"/>
        <tazSource id="145069328" weight="1.00"/>
        <tazSource id="145069335#0" weight="1.00"/>
        <tazSource id="145069335#2" weight="1.00"/>
        <tazSource id="145069336#0" weight="1.00"/>
        <tazSource id="145069336#1" weight="1.00"/>
        <tazSource id="145069336#2" weight="1.00"/>
        <tazSource id="145069339#0" weight="1.00"/>
        <tazSource id="145069345#0" weight="1.00"/>
        <tazSource id="145069345#1" weight="1.00"/>
        <tazSource id="145069347#0" weight="1.00"/>
        <tazSource id="145069351" weight="1.00"/>
        <tazSource id="145069354#0" weight="1.00"/>
        <tazSource id="145069357" weight="1.00"/>
        <tazSource id="145069363#0" weight="1.00"/>
        <tazSource id="145069366#3" weight="1.00"/>
        <tazSource id="145069369#0" weight="1.00"/>
        <tazSource id="145069371#0" weight="1.00"/>
        <tazSource id="145069371#1" weight="1.00"/>
        <tazSource id="145069373#0" weight="1.00"/>
        <tazSource id="145069374" weight="1.00"/>
        <tazSource id="145069384" weight="1.00"/>
        <tazSource id="145069386#0" weight="1.00"/>
        <tazSource id="145069391" weight="1.00"/>
        <tazSource id="145069394#0" weight="1.00"/>
        <tazSource id="145069394#1" weight="1.00"/>
        <tazSource id="151167768#0" weight="1.00"/>
        <tazSource id="151167768#1" weight="1.00"/>
        <tazSource id="155458987#0" weight="1.00"/>
        <tazSource id="155458987#1" weight="1.00"/>
        <tazSource id="156816469" weight="1.00"/>
        <tazSource id="156923526#0" weight="1.00"/>
        <tazSource id="156923526#3" weight="1.00"/>
        <tazSource id="161678033#0" weight="1.00"/>
        <tazSource id="161678034#0" weight="1.00"/>
        <tazSource id="161678034#1" weight="1.00"/>
        <tazSource id="168243632" weight="1.00"/>
        <tazSource id="168245119#0" weight="1.00"/>
        <tazSource id="172515808" weight="1.00"/>
        <tazSource id="172515811#0" weight="1.00"/>
        <tazSource id="172515812#0" weight="1.00"/>
        <tazSource id="172515813" weight="1.00"/>
        <tazSource id="172515814#0" weight="1.00"/>
        <tazSource id="172515814#1" weight="1.00"/>
        <tazSource id="172517196" weight="1.00"/>
        <tazSource id="172517198#0" weight="1.00"/>
        <tazSource id="172519650" weight="1.00"/>
        <tazSource id="173148224#1" weight="1.00"/>
        <tazSource id="174321447" weight="1.00"/>
        <tazSource id="174609517#0" weight="1.00"/>
        <tazSource id="18909061#0" weight="1.00"/>
        <tazSource id="18909064" weight="1.00"/>
        <tazSource id="200946853" weight="1.00"/>
        <tazSource id="201278214#0" weight="1.00"/>
        <tazSource id="201278215" weight="1.00"/>
        <tazSource id="201278216#0" weight="1.00"/>
        <tazSource id="201278218#0" weight="1.00"/>
        <tazSource id="201969576#0" weight="1.00"/>
        <tazSource id="201969576#1" weight="1.00"/>
        <tazSource id="201969576#2" weight="1.00"/>
        <tazSource id="204388144#0" weight="1.00"/>
        <tazSource id="204388144#1" weight="1.00"/>
        <tazSource id="208445147" weight="1.00"/>
        <tazSource id="20975942#2" weight="1.00"/>
        <tazSource id="20975943#0" weight="1.00"/>
        <tazSource id="20975948#0" weight="1.00"/>
        <tazSource id="20975948#1" weight="1.00"/>
        <tazSource id="20975948#2" weight="1.00"/>
        <tazSource id="20975950#0" weight="1.00"/>
        <tazSource id="20975950#1" weight="1.00"/>
        <tazSource id="224419108" weight="1.00"/>
        <tazSource id="224892338" weight="1.00"/>
        <tazSource id="23184274#2" weight="1.00"/>
        <tazSource id="23184317" weight="1.00"/>
        <tazSource id="233673423" weight="1.00"/>
        <tazSource id="24495188" weight="1.00"/>
        <tazSource id="24598017" weight="1.00"/>
        <tazSource id="24692328" weight="1.00"/>
        <tazSource id="24733323#0" weight="1.00"/>
        <tazSource id="24733323#1" weight="1.00"/>
        <tazSource id="24872465" weight="1.00"/>
        <tazSource id="24872530#0" weight="1.00"/>
        <tazSource id="24872530#3" weight="1.00"/>
        <tazSource id="24982688#0" weight="1.00"/>
        <tazSource id="24982688#2" weight="1.00"/>
        <tazSource id="24982688#3" weight="1.00"/>
        <tazSource id="24983010#1" weight="1.00"/>
        <tazSource id="25148803" weight="1.00"/>
        <tazSource id="25148808" weight="1.00"/>
        <tazSource id="25148889" weight="1.00"/>
        <tazSource id="26334127#0" weight="1.00"/>
        <tazSource id="26334127#3" weight="1.00"/>
        <tazSource id="26334127#4" weight="1.00"/>
        <tazSource id="26334127#5" weight="1.00"/>
        <tazSource id="26334131" weight="1.00"/>
        <tazSource id="26334132#0" weight="1.00"/>
        <tazSource id="26334133#0" weight="1.00"/>
        <tazSource id="26471752#0" weight="1.00"/>
        <tazSource id="26471752#2" weight="1.00"/>
        <tazSource id="26471752#2.161" weight="1.00"/>
        <tazSource id="266607804#0" weight="1.00"/>
        <tazSource id="266607804#1" weight="1.00"/>
        <tazSource id="27827337" weight="1.00"/>
        <tazSource id="27893434#1" weight="1.00"/>
        <tazSource id="27893434#2" weight="1.00"/>
        <tazSource id="28119593" weight="1.00"/>
        <tazSource id="28418763" weight="1.00"/>
        <tazSource id="28418764#0" weight="1.00"/>
        <tazSource id="28418764#0.126" weight="1.00"/>
        <tazSource id="28418764#0.141" weight="1.00"/>
        <tazSource id="29002248#1" weight="1.00"/>
        <tazSource id="29002251#0" weight="1.00"/>
        <tazSource id="29002252#0" weight="1.00"/>
        <tazSource id="29002253" weight="1.00"/>
        <tazSource id="29002614" weight="1.00"/>
        <tazSource id="29002689" weight="1.00"/>
        <tazSource id="29002846" weight="1.00"/>
        <tazSource id="29458100#0" weight="1.00"/>
        <tazSource id="29458101" weight="1.00"/>
        <tazSource id="29458640#0" weight="1.00"/>
        <tazSource id="29458645" weight="1.00"/>
        <tazSource id="29458645.65" weight="1.00"/>
        <tazSource id="29458645.81" weight="1.00"/>
        <tazSource id="29458647#0" weight="1.00"/>
        <tazSource id="300750369#0" weight="1.00"/>
        <tazSource id="305390324" weight="1.00"/>
        <tazSource id="305390333" weight="1.00"/>
        <tazSource id="305390335" weight="1.00"/>
        <tazSource id="306086241" weight="1.00"/>
        <tazSource id="306396705" weight="1.00"/>
        <tazSource id="31362504#0" weight="1.00"/>
        <tazSource id="32084380" weight="1.00"/>
        <tazSource id="32124561#0" weight="1.00"/>
        <tazSource id="32124561#1" weight="1.00"/>
        <tazSource id="32124561#3" weight="1.00"/>
        <tazSource id="32124561#4" weight="1.00"/>
        <tazSource id="32124563#0" weight="1.00"/>
        <tazSource id="32124563#3" weight="1.00"/>
        <tazSource id="32200983#0" weight="1.00"/>
        <tazSource id="32200983#3" weight="1.00"/>
        <tazSource id="32201042" weight="1.00"/>
        <tazSource id="32201044#0" weight="1.00"/>
        <tazSource id="32201044#1" weight="1.00"/>
        <tazSource id="32201044#2" weight="1.00"/>
        <tazSource id="32201172" weight="1.00"/>
        <tazSource id="32202011#0" weight="1.00"/>
        <tazSource id="32225921" weight="1.00"/>
        <tazSource id="32226141#0" weight="1.00"/>
        <tazSource id="32229741" weight="1.00"/>
        <tazSource id="32229742#1" weight="1.00"/>
        <tazSource id="32229742#3" weight="1.00"/>
        <tazSource id="32229742#4" weight="1.00"/>
        <tazSource id="32229742#5" weight="1.00"/>
        <tazSource id="32229973" weight="1.00"/>
        <tazSource id="32229975#0" weight="1.00"/>
        <tazSource id="32229975#1" weight="1.00"/>
        <tazSource id="32229975#2" weight="1.00"/>
        <tazSource id="32229976" weight="1.00"/>
        <tazSource id="32234776#0" weight="1.00"/>
        <tazSource id="32350852#0" weight="1.00"/>
        <tazSource id="32350852#1" weight="1.00"/>
        <tazSource id="32350852#3" weight="1.00"/>
        <tazSource id="32350852#4" weight="1.00"/>
        <tazSource id="32923863#2" weight="1.00"/>
        <tazSource id="32923867#1" weight="1.00"/>
        <tazSource id="32923867#1.96" weight="1.00"/>
        <tazSource id="32923867#2" weight="1.00"/>
        <tazSource id="32923867#3" weight="1.00"/>
        <tazSource id="32923867#4" weight="1.00"/>
        <tazSource id="32998243#0" weight="1.00"/>
        <tazSource id="32998243#3" weight="1.00"/>
        <tazSource id="33697953" weight="1.00"/>
        <tazSource id="33779209#1" weight="1.00"/>
        <tazSource id="33814393#0" weight="1.00"/>
        <tazSource id="33814393#1" weight="1.00"/>
        <tazSource id="33814393#2" weight="1.00"/>
        <tazSource id="342077199" weight="1.00"/>
        <tazSource id="35681843" weight="1.00"/>
        <tazSource id="356952270" weight="1.00"/>
        <tazSource id="358042226" weight="1.00"/>
        <tazSource id="37282688#2" weight="1.00"/>
        <tazSource id="37282738" weight="1.00"/>
        <tazSource id="37451605" weight="1.00"/>
        <tazSource id="37649447#0" weight="1.00"/>
        <tazSource id="37649448#0" weight="1.00"/>
        <tazSource id="37649448#1" weight="1.00"/>
        <tazSource id="37793615" weight="1.00"/>
        <tazSource id="379723624#0" weight="1.00"/>
        <tazSource id="379723624#1" weight="1.00"/>
        <tazSource id="38508400#1" weight="1.00"/>
        <tazSource id="389831364" weight="1.00"/>
        <tazSource id="390282481" weight="1.00"/>
        <tazSource id="391208988" weight="1.00"/>
        <tazSource id="39443315#0" weight="1.00"/>
        <tazSource id="39443315#1" weight="1.00"/>
        <tazSource id="39443316#0" weight="1.00"/>
        <tazSource id="40801168" weight="1.00"/>
        <tazSource id="41203193" weight="1.00"/>
        <tazSource id="51856496#0" weight="1.00"/>
        <tazSource id="51856496#1" weight="1.00"/>
        <tazSource id="51856496#2" weight="1.00"/>
        <tazSource id="51856496#3" weight="1.00"/>
        <tazSource id="51856496#4" weight="1.00"/>
        <tazSource id="51856496#5" weight="1.00"/>
        <tazSource id="51856496#6" weight="1.00"/>
        <tazSource id="51856496#8" weight="1.00"/>
        <tazSource id="51857519#0" weight="1.00"/>
        <tazSource id="52513194" weight="1.00"/>
        <tazSource id="52587775" weight="1.00"/>
        <tazSource id="54033673#0" weight="1.00"/>
        <tazSource id="54033673#0.28" weight="1.00"/>
        <tazSource id="54033673#2" weight="1.00"/>
        <tazSource id="54033673#3" weight="1.00"/>
        <tazSource id="542617943" weight="1.00"/>
        <tazSource id="58295043" weight="1.00"/>
        <tazSource id="61940355" weight="1.00"/>
        <tazSource id="61940356" weight="1.00"/>
        <tazSource id="62798408" weight="1.00"/>
        <tazSource id="749560261" weight="1.00"/>
        <tazSource id="749560262" weight="1.00"/>
        <tazSource id="749560263#0" weight="1.00"/>
        <tazSource id="749560263#2" weight="1.00"/>
        <tazSource id="749560264#0" weight="1.00"/>
        <tazSource id="749560267#0" weight="1.00"/>
        <tazSource id="749560267#1" weight="1.00"/>
        <tazSource id="749560268" weight="1.00"/>
        <tazSource id="749560269#0" weight="1.00"/>
        <tazSource id="749560273" weight="1.00"/>
        <tazSource id="749560273.16" weight="1.00"/>
        <tazSource id="749560274#0" weight="1.00"/>
        <tazSource id="749560274#2" weight="1.00"/>
        <tazSource id="749560275" weight="1.00"/>
        <tazSource id="749560276" weight="1.00"/>
        <tazSource id="825445496#1" weight="1.00"/>
        <tazSource id="885513468#0" weight="1.00"/>
        <tazSource id="885513468#1" weight="1.00"/>
        <tazSource id="gneE154" weight="1.00"/>
        <tazSource id="gneE176" weight="1.00"/>
        <tazSource id="gneE184" weight="1.00"/>
        <tazSource id="gneE185" weight="1.00"/>
        <tazSource id="gneE19" weight="1.00"/>
        <tazSource id="gneE20" weight="1.00"/>
        <tazSource id="gneE25" weight="1.00"/>
        <tazSource id="gneE27" weight="1.00"/>
        <tazSource id="gneE3" weight="1.00"/>
        <tazSink id="-101238042" weight="1.00"/>
        <tazSink id="-102818928#0" weight="1.00"/>
        <tazSink id="-102818928#0.78" weight="1.00"/>
        <tazSink id="-102818928#1" weight="1.00"/>
        <tazSink id="-103396186" weight="1.00"/>
        <tazSink id="-103512667#0" weight="1.00"/>
        <tazSink id="-103512667#1" weight="1.00"/>
        <tazSink id="-103512667#2" weight="1.00"/>
        <tazSink id="-103671248" weight="1.00"/>
        <tazSink id="-103671288" weight="1.00"/>
        <tazSink id="-103718173" weight="1.00"/>
        <tazSink id="-10425610#2" weight="1.00"/>
        <tazSink id="-130996521#1" weight="1.00"/>
        <tazSink id="-130996521#2" weight="1.00"/>
        <tazSink id="-136728351#0" weight="1.00"/>
        <tazSink id="-136728351#4" weight="1.00"/>
        <tazSink id="-137685135" weight="1.00"/>
        <tazSink id="-145069278#2" weight="1.00"/>
        <tazSink id="-145069284" weight="1.00"/>
        <tazSink id="-145069287#7" weight="1.00"/>
        <tazSink id="-145069287#7.50" weight="1.00"/>
        <tazSink id="-145069294#1" weight="1.00"/>
        <tazSink id="-145069309" weight="1.00"/>
        <tazSink id="-145069316#0" weight="1.00"/>
        <tazSink id="-145069316#1" weight="1.00"/>
        <tazSink id="-145069320#1" weight="1.00"/>
        <tazSink id="-145069335#1" weight="1.00"/>
        <tazSink id="-145069335#3" weight="1.00"/>
        <tazSink id="-145069347#2" weight="1.00"/>
        <tazSink id="-145069357" weight="1.00"/>
        <tazSink id="-145069366#3" weight="1.00"/>
        <tazSink id="-145069369#1" weight="1.00"/>
        <tazSink id="-145069371#0" weight="1.00"/>
        <tazSink id="-145069371#1" weight="1.00"/>
        <tazSink id="-145069391" weight="1.00"/>
        <tazSink id="-155458987#0" weight="1.00"/>
        <tazSink id="-155458987#5" weight="1.00"/>
        <tazSink id="-156923526#2" weight="1.00"/>
        <tazSink id="-156923526#3" weight="1.00"/>
        <tazSink id="-161678033#0" weight="1.00"/>
        <tazSink id="-161678034#0" weight="1.00"/>
        <tazSink id="-168243632" weight="1.00"/>
        <tazSink id="-168245119#2" weight="1.00"/>
        <tazSink id="-174609517#3" weight="1.00"/>
        <tazSink id="-18909061#1" weight="1.00"/>
        <tazSink id="-201278214#1" weight="1.00"/>
        <tazSink id="-201278216#1" weight="1.00"/>
        <tazSink id="-201969576#0" weight="1.00"/>
        <tazSink id="-201969576#1" weight="1.00"/>
        <tazSink id="-201969576#4" weight="1.00"/>
        <tazSink id="-204388144#0" weight="1.00"/>
        <tazSink id="-204388144#1" weight="1.00"/>
        <tazSink id="-20975942#2" weight="1.00"/>
        <tazSink id="-20975943#0" weight="1.00"/>
        <tazSink id="-20975948#0" weight="1.00"/>
        <tazSink id="-20975948#1" weight="1.00"/>
        <tazSink id="-20975948#2" weight="1.00"/>
        <tazSink id="-20975950#0" weight="1.00"/>
        <tazSink id="-20975950#1" weight="1.00"/>
        <tazSink id="-224419108" weight="1.00"/>
        <tazSink id="-23184274#3" weight="1.00"/>
        <tazSink id="-23184317" weight="1.00"/>
        <tazSink id="-233673423" weight="1.00"/>
        <tazSink id="-24495188" weight="1.00"/>
        <tazSink id="-24598017" weight="1.00"/>
        <tazSink id="-24692328" weight="1.00"/>
        <tazSink id="-24733323#0" weight="1.00"/>
        <tazSink id="-24733323#2" weight="1.00"/>
        <tazSink id="-24872465" weight="1.00"/>
        <tazSink id="-24872530#1" weight="1.00"/>
        <tazSink id="-24872530#5" weight="1.00"/>
        <tazSink id="-24982688#1" weight="1.00"/>
        <tazSink id="-24982688#2" weight="1.00"/>
        <tazSink id="-24982688#4" weight="1.00"/>
        <tazSink id="-24983010#2" weight="1.00"/>
        <tazSink id="-25148803" weight="1.00"/>
        <tazSink id="-25148808" weight="1.00"/>
        <tazSink id="-25148889" weight="1.00"/>
        <tazSink id="-26334127#2" weight="1.00"/>