<?xml version="1.0" encoding="UTF-8"?>
<!-- generated on 2021-11-19 11:11:24.373329 by $Id$ UNKNOWN
  options: -n /home/lobo/Repository/InTAS_RealFuture/scenario/ingolstadt.net.xml -t TAZ.add.xml -o /home/lobo/Repository/InTAS_RealFuture/Traffic_Demand/TAZ/districts.taz.xml
-->
<tazs xmlns:xsi="http://www.w3.org/2001/XMLSchema-instance" xsi:noNamespaceSchemaLocation="http://sumo.dlr.de/xsd/taz_file.xsd">
    <taz id="TAZ_010" color="blue" edges="-130996521#1 -130996521#2 -224419108 -24495188 -26334127#2 -26334127#3 -26334127#4 -26334127#7 -26471752#1 -26471752#5 -26471752#5.18 -29458641 -29458645.28 -31362504#3 -32923867#0 -32923867#1 -32923867#2 -32923867#3 -32923867#4 -32998243#2 -32998243#3 -379723624#0 -379723624#1 -39649533 -61940355 -61940356 103686113 10425803 130996518#0 130996520 130996520.58 130996521#2 131118448#0 131118448#1 131118468#0 131118468#0.16 131118468#1 131118468#3 131118468#4 155458987#0 172515808 172515811#0 172515812#0 172515813 172517196 172517198#0 172519650 201278215 201278218#0 224419108 224892338 24495188 26471752#0 26471752#2 26471752#2.161 28418763 29458640#0 305390324 305390333 305390335 306086241 31362504#0 32923867#1 32923867#1.96 32923867#2 32923867#3 32923867#4 32998243#0 32998243#3 35681843 379723624#0 379723624#1 61940355 61940356 gneE25 gneE27"/>
    <taz id="TAZ_011" color="green" edges="-103512667#0 -103512667#1 -103512667#2 -145069272 -145069287#7 -145069287#7.50 -145069347#2 -164051413 -18909061#1 -18909063#0 -18909063#2 -201089423#1 -201089423#2 -25122830#2 -27825654#6 -32061928#1 -32061928#3 -32061928#4 -32124743 -32124744 -32124745 -32226141#0 -32234776#1 -32999434#1 -33102476 -33102477 -36689751#2 -389840420#2 -389840420#4 -83304175#2 -83304175#2.184 -83304175#2.204 103512671 104010354 104010475#0 104012170 104236369 10425609#0 10425609#1 108239938 108310250 124812857#0 145069287#0 145069287#0.136 145069323#0 145069328 145069331#0 145069342#0 145069347#0 145069350#0 145069350#1 145069363#0 164051413 172488482#0 172488483#0 172493335#1 172493341#1 18909061#0 18909063#0 18909063#1 201963537#1 24599188#0 24599188#0.75 24599188#0.94 25122830#0 27825654#0 29002239 29119898 29458096 29458097#0 32061928#2 32061928#4 32061928#5 32230348 32230349#0 32978638#0 32978638#1 32999110#0 32999110#1 35926319#0 35926319#1 37793615 389831363#0 389840420#3 402600768#0 402600768#1 40801168 51856495#0 51857517#0 51857517#0.33 51857517#1 51857518#1 88903284 gneE154"/>
    <taz id="TAZ_012" color="yellow" edges="-105482066 -107671228 -108310252 -108310253 -11014139#1 -140684003 -144659492#0 -144659492#4 -144659496 -145069300#1 -145069300#1.112 -145069307#1 -154658249 -168434697 -233673425#0 -233673425#1 -24537982#1 -24537982#2 -24537982#3 -24537982#4 -24692391#1 -24692391#3 -24972185#1 -24972185#8 -24972185#8.373 -24972185#9 -24977590#0 -24977590#1 -24991571 -24991573 -25955084#1 -25993505#2 -25993505#3 -25993505#4 -25993505#5 -25993592#1 -266565295#0 -266565295#1 -266565295#2 -266565295#3 -266565295#4 -266565295#5 -266565299 -266565302 -266567307#1 -26973015 -28268963 -28268964 -29027839#1 -29027839#2 -29027840 -29119898 -29238013 -29238016 -29238020#0 -29238023 -29238024 -29238044 -29238181 -29238182 -29238183#0 -29238184#1 -29458095 -29458096 -29458097#2 -30404124 -30435490 -31343367#1 -31773007 -32009683#1 -32200414#1 -32200415#1 -32924041#3 -32978638#0 -32978638#3 -34230893 -356952269 -379007773 -379514684 -379514686 -379514690 -379514692 -380273343 -398653115 -434713632 -51856492#2 -51856493#1 -51856495#2 -51856497 -51856498 -51856499 -51856500 -77912237 -77912241 -80369229 -80369240 -80369242 -80369243 -80369244 -80369245 -80369257 -80369263 -80369267 107677354#1 140684003 144659489 144659492#0 144659492#1 144659495 144659496 145069272 145069300#1 145069303#0 145069303#1 145069303#2 145069303#4 145069307#0 145069358 145069362#0 154658249 168434696 24537982#0 24537982#2 24537982#3 24537982#4 24762523#0 24762523#1 24972185#0 24972185#2 24972185#2.111 24972185#9 24982784#0 24982784#1 24982787#0 25850440#0 25955084#1 25993505#0 25993505#3 25993505#4 25993505#5 25993592#1 266565302 266567308#0 28268963 28268964 29027839#0 29027839#2 29027840 29048562#0 29238013 29238015 29238020#0 29238021 29238022 29238023 29238024 29238044 29238181 29238182 29238183#0 29238184#0 29458095 300750370 30417892 30435490 31342066 31343367#0 31773007 32020916#0 32021112#0 32200414#0 32200415#0 32200416 32200762#0 32200762#2 32200762#3 32200762#5 32230724 32259258 34230893 379514685 379514687 379514688 379514689 380273343 51856492#0 51856493#0 51856497 51856498 51856499 51856500 51857516#1 52572753#0 52572753#2 64464397#0 64464432#0 64464432#1 64464432#2 77670297#0 77670297#1 77912233 77912237 77912241 80369229 80369240 80369242 80369243 80369244 80369245 80369257 80369263 80369267 gneE176 gneE212 gneE213 gneE249 gneE250"/>
    <taz id="TAZ_013" color="128,0,0" edges="-103671288 -145069278#2 -145069294#1 -145069303#0 -145069303#1 -145069303#3 -145069303#4 -145069366#3 -161678033#0 -161678034#0 -161678034#1 -233673423 -24692328 -24872530#1 -24872530#5 -24982688#1 -24982688#2 -24982688#4 -24983010#0 -24983010#2 -28418764#0.88 -28418764#1 -32200983#1 -32200983#6 -32201042 -32201044#0 -32201044#1 -32201044#2 -32350852#0 -32350852#1 -32350852#3 -32350852#4 -51857519#1 -52587775 -749560261 -749560273.32 -749560273.4 -749560274#1 -749560274#2 -749560275 -749560276 -825445496#1 -885513468#0 -885513468#1 103671248 103671288 103687353 11014139#0 130996518#0 145069278#0 145069357 145069366#3 145069374 145069386#0 161678033#0 161678034#0 161678034#1 24692328 24692391#0 24692391#2 24872530#0 24872530#3 24982688#0 24982688#2 24982688#3 24983010#0 24983010#1 24991571 24991573 25114091 266567306 26973015 28119593 28418764#0.126 28418764#0.141 29002614 32124563#0 32124563#3 32200983#0 32200983#3 32201172 32350852#0 32350852#1 32350852#3 32350852#4 342077199 434713632 51857519#0 52587775 62798408 64464405 64464408 749560261 749560262 749560263#0 749560263#2 749560264#0 749560267#0 749560267#1 749560268 749560269#0 749560273 749560273.16 749560274#0 749560274#2 749560275 749560276 825445496#1 885513468#0 885513468#1 gneE176 gneE230 gneE231"/>
    <taz id="TAZ_014" color="yellow" edges="-101238042 -102818928#0 -102818928#0.78 -102818928#1 -103396186 -103671248 -10425610#2 -137685135 -145069284 -145069309 -145069316#0 -145069316#1 -145069320#1 -145069335#1 -145069335#3 -145069357 -145069369#1 -145069371#0 -145069371#1 -145069391 -156923526#2 -156923526#3 -201969576#4 -201969576#5 -201969576#6 -201969576#7 -204388144#0 -204388144#1 -24598017 -24872465 -25148803 -25148808 -25148889 -28418764#0.109 -28418764#0.88 -29497467 -32084380 -32201172 -32202011#1 -32229976 -37451605 -37649447#1 -389831364 -390282481 -51856496#0 -51856496#1 -51856496#2 -51856496#3 -51856496#4 -51856496#5 -51856496#7 -52513194 -542617943 -62798408 101238042 102818925 102818928#1 103396186 103512667#0 103512667#1 103512667#2 10425610#0 124812856#0 124812856#1 145069268 145069270#0 145069270#2 145069280#0 145069284 145069286#0 145069291#0 145069291#2 145069294#0 145069296 145069298 145069304 145069309 145069311#0 145069313#0 145069313#2 145069316#0 145069316#1 145069320#1 145069325#0 145069335#0 145069335#2 145069336#0 145069336#1 145069336#2 145069339#0 145069345#0 145069345#1 145069351 145069354#0 145069369#0 145069371#0 145069371#1 145069373#0 145069384 145069391 145069394#0 145069394#1 151167738#0 156816469 156923526#0 156923526#3 173148224#1 18909064 201956811#0 201956821#0 201956821#1.68 201969576#0 201969576#1 201969576#2 201969576#5 201969576#6 201969576#7 204388144#0 204388144#1 208445147 233673423 24598017 24872465 25148803 25148808 25148889 28418763 28418764#0 28418764#0.126 29002248#1 29002251#0 29002252#0 29002253 29002689 29002846 29497467 300750369#0 32084380 32124561#0 32124561#1 32124561#3 32124561#4 32201042 32201044#0 32201044#1 32201044#2 32202011#0 32225921 32226141#0 32229741 32229742#1 32229742#3 32229742#4 32229742#5 32229973 32229975#0 32229975#1 32229975#2 32229976 32234776#0 33102476 33697953 358042226 36689751#0 37451605 37649447#0 37649448#0 37649448#1 389831364 390282481 51856496#0 51856496#1 51856496#2 51856496#3 51856496#4 51856496#5 51856496#6 51856496#8 52513194 542617943 61940355 gneE154 gneE184 gneE185 gneE3"/>
    <taz id="TAZ_015" color="0,128,128" edges="-107431496#1 -107431496#3 -116391311 -116391315#0 -116391315#1 -136728351#0 -136728351#4 -136728366#0 -136728366#1 -138300621#0 -138300621#1 -138300621#2 -138300626#0 -138300626#1 -140579856#0 -140579856#1 -140579859 -140579862#0 -140579862#1 -140579862#2 -140579865 -140579867#0 -140579867#1 -140579867#2 -140579869 -140579871 -140579876 -140579879 -140579883 -140579898 -140579902 -151167738#0 -151167738#1 -151167738#2 -173169611#0 -173169611#0.65 -173169611#3 -173169611#4 -173169612 -174324270#0 -174324270#1 -174324270#2 -174324270#3 -174324270#4 -174324279#0 -174324279#1 -174329095#2 -177497116 -177497117 -201956812 -201956813#0 -201956813#1 -201956814#0 -201956815#2 -201969576#0 -201969576#1 -201969576#7 -23442105#0 -23442105#1 -23442105#2 -23442105#3 -23442105#4 -23442105#5 -23442105#6 -23442105#7 -23442106#0 -23442106#1 -23442110#0 -23442110#1 -24495565#0 -24495565#1 -24495749 -24579865#0 -24614922#1 -24733663 -25076749#0 -25076749#1 -25076749#2 -25076787#0 -25076787#1 -25076787#2 -25171366#0 -25171366#1 -25171366#2 -25182130 -25182154 -25188986#0 -25188986#1 -25194376#0 -25194376#1 -25194376#2 -25344713 -25380898#0 -25380898#1 -25534317#0 -25534317#1 -25534318 -26372056 -26372058 -26372059#0 -26372059#1 -26372059#3 -26372657#0 -26372657#1 -26372657#10 -26372657#2 -26372657#3 -26372657#4 -26372657#5 -26372657#6 -26372657#7 -26372657#8 -26372657#9 -26729232#0 -26729232#2 -26729233#0 -26729235#0 -26729235#1 -26729236#1 -26729236#6 -26729366#0 -26729366#1 -26729366#2 -26729366#4 -26729366#5 -26729367#0 -26729367#1 -26729367#2 -26729368 -26729370 -26809976#0 -26809976#1 -26976693#0 -26976693#1 -28014156#0 -28014156#1 -28014167#0 -28014167#1 -28014167#2 -28014167#3 -28014170#0 -28014170#1 -29497467 -31959643#0 -31959643#1 -31959643#2 -31959643#3 -31981903 -31981927 -31982132 -33102205#0 -33102205#1 -33102205#2 -33102205#3 -339189095 -339189099 -339189103#0 -339189103#1 -339189103#2 -339189103#3 -339418351 -34916577 -36981391 -38305646#0 -38305646#1 -38305646#2 -38305646#4 -38346461#0 -38346461#1 -38346461#2 -391891457 -39265714 -39265738 -40880089#0 -40880089#1 -40880089#2 -40880089#3 -40880090#0 -40880090#1 -40880090#2 -40880090#3 -41203193 -41225170 -41225172#0 -41225172#1 -41225174 -41225176 -41225177#0 -41225177#1 -41225178 -529636981 -53007905#1 -53007905#2 -53007906 -53007907 -53007909 -53007913 -531109040 -54231711 -54231714 -61940355 -93112163 -93128009 -93128023#0 -93128023#1 -93128023#2 -93128023#3 -93128028 -93128045 116391311 116391315#0 116391315#1 136728351#0 136728351#1 136728366#0 136728366#1 138300621#0 138300621#1 138300621#2 138300626#0 138300626#1 138300627 140579856#0 140579856#1 140579859 140579862#0 140579862#1 140579862#2 140579865 140579867#0 140579867#1 140579867#2 140579869 140579876 140579879 140579883 140579887 140579898 140579902 151167738#1 151167738#2 174324270#2 174324270#3 174324270#4 174324279#0 174324279#1 174329095#0 177497116 177497117 201956812 201956813#0 201956813#1 201956814#0 201956814#1 201956815#0 201956820 23442105#0 23442105#1 23442105#2 23442105#3 23442105#4 23442105#5 23442105#6 23442105#7 23442106#0 23442106#1 23442108#0 23442110#1 24495565#0 24495565#1 24495749 24579865#0 24614922#0 24733663 25076749#0 25076749#1 25076749#2 25076787#0 25076787#1 25076787#2 25117288#0 25171366#0 25171366#1 25171366#2 25182130 25182154 25188986#0 25188986#1 25194376#0 25194376#1 25194376#2 25344713 25380898#0 25380898#1 25534317#0 25534317#1 25534318 26372056 26372058 26372059#0 26372059#1 26372059#2 26372657#0 26372657#1 26372657#10 26372657#2 26372657#3 26372657#4 26372657#5 26372657#6 26372657#7 26372657#8 26372657#9 26729233#0 26729233#1 26729235#0 26729235#1 26729235#2 26729236#2 26729366#0 26729366#1 26729366#2 26729366#3 26729366#5 26729367#0 26729367#1 26729367#2 26729368 26729370 26809976#0 26809976#1 26976693#0 26976693#1 28014156#0 28014156#1 28014167#0 28014167#1 28014167#2 28014167#3 28014170#0 28014170#1 30482614 30482615#1 30482615#5 30482615#6 31025769#0 31025769#1 31025769#2 31959643#0 31959643#1 31959643#2 31959643#3 31981903 31981927 31982132 33102205#0 33102205#1 33102205#2 33102205#3 339189095 339189099 339189103#0 339189103#1 339189103#2 339189103#3 339418351 34916577 36981391 38305646#0 38305646#1 38305646#2 38305646#3 38346461#0 38346461#1 38346461#2 39265714 39265738 40880089#0 40880089#1 40880089#2 40880089#3 40880090#0 40880090#1 40880090#2 40880090#3 41203193 41225170 41225172#0 41225172#1 41225174 41225176 41225177#0 41225177#1 41225178 529636981 53007905#1 53007905#2 53007906 53007907 53007909 53007913 531109040 54231711 54231714 93112163 93128009 93128023#0 93128023#1 93128023#2 93128023#3 93128028 93128040#0"/>
    <taz id="TAZ_016" color="128,0,128" edges="-104010328 -164051413 -170425366#6 -170425368 -173167517 -173167521#0 -173167521#1 -173167522#0 -173167522#1 -173167523 -173167525#0 -173167525#1 -173167526#0 -173167526#1 -173167527#0 -173167527#1 -173177776#1 -18809672#1 -18809672#4 -18809672#5 -18809672#6 -18809672#7 -18813598#1 -18813598#6 -18813598#7 -18813598#8 -201963522#0 -201963522#1 -201963522#2 -201963522#3 -201963522#4 -201963522#5 -201963522#9 -22716069#0 -22716069#1 -22716069#2 -22716072#3 -22716072#5 -22716073 -24614922#2 -24614922#3 -25122731#1 -25136980#0 -25136980#1 -25136980#2 -25136980#3 -25136980#5 -25136980#6 -25136980#7 -25136980#8 -25136980#9 -25136981 -25136982#0 -25136982#1 -25136982#2 -25136982#3 -25136983#0 -25136983#1 -25136984 -25136986 -25141428#0 -25141428#1 -25141428#2 -25141430#0 -25145011#0 -25145011#2 -25145012#0 -25145012#1 -25145012#2 -25145012#3 -25145012#4 -25145012#5 -25145012#6 -25145013#0 -25145013#1 -25145014#0 -25145014#1 -25145014#2 -25145014#3 -25145014#4 -25149001#0 -25149001#2 -25149001#3 -25149001#4 -25149001#5 -25149251#0 -25149251#1 -25149251#2 -25149251#3 -25149251#4 -25149251#5 -25187889 -25187891 -25187892 -25187893 -25187895#0 -25187895#1 -25187896 -25188976#0 -25188976#1 -25188977 -25190140#0 -25190140#1 -25190140#2 -25209894#0 -25209894#1 -26642362#0 -26642362#1 -26642362#2 -26642362#3 -26642362#5 -26642363 -28111977#0 -28111977#1 -28111977#10 -28111977#2 -28111977#3 -28111977#4 -28111977#5 -28111977#6 -28111977#7 -28111977#8 -28111977#9 -30482614 -30482615#4 -30482615#5 -30482615#6 -31860333#0 -31860333#1 -31860333#2 -31860333#3 -31860333#4 -32395288#1 -32395288#2 -32395288#3 -32395327#1 -32395352#1 -32395361#1 -32395414#0 -32395414#1 -32395464 -37681424#0 -37681424#1 -37681425#4 -37681425#6 -37681425#7 -393420106#1 -41051113#0 -41051113#1 -41051113#2 -42487768 -42491779 -435015473 -653473568#0 -653473568#1 -653473569#0 -653473569#1 -653473569#2 -653473569#4 -653473569#5 -93386922 104010354 124812857#0 128361102#0 128906555 139230366 164051413 170425366#0 170425368 173167517 173167521#0 173167521#1 173167522#0 173167522#1 173167523 173167525#0 173167525#1 173167526#0 173167526#1 173167527#0 173167527#1 173169611#1 173169611#4 173169612 173177776#0 18809672#0 18809672#2 18809672#5 18809672#6 18809672#7 18809673#0 18813598#0 18813598#2 18813598#7 18813598#8 201201935#0 201956810 201956819#0 201956819#0.118 201963522#0 201963522#1 201963522#2 201963522#3 201963522#4 201963522#5 201963522#6 201963533#5 201963535 22716069#0 22716069#1 22716069#2 22716072#0 22716072#4 22716073 233675413#0 233675413#1 233675413#2 233675413#3 233675413#4 233675413#7 24614922#2 24614922#3 25136980#0 25136980#1 25136980#2 25136980#3 25136980#5 25136980#6 25136980#7 25136980#8 25136980#9 25136981 25136982#0 25136982#1 25136982#2 25136982#3 25136983#0 25136983#1 25136984 25136986 25141428#0 25141428#1 25141428#2 25141430#0 25145011#0 25145011#1 25145012#0 25145012#1 25145012#2 25145012#3 25145012#4 25145012#5 25145012#6 25145012#7 25145013#0 25145013#1 25145014#0 25145014#1 25145014#2 25145014#3 25145014#4 25149001#0 25149001#1 25149001#3 25149001#4 25149001#5 25149219#1 25149251#0 25149251#1 25149251#2 25149251#3 25149251#4 25149251#5 25187889 25187891 25187892 25187893 25187895#0 25187895#1 25187896 25188976#0 25188976#1 25188977 25190140#0 25190140#1 25190140#2 25209894#0 25209894#1 26642362#0 26642362#1 26642362#2 26642362#3 26642362#4 26642363 26729232#0 26729232#1 27920078#0 27920078#1 28111977#0 28111977#1 28111977#10 28111977#2 28111977#3 28111977#4 28111977#5 28111977#6 28111977#7 28111977#8 28111977#9 285549250#0 31860333#0 31860333#1 31860333#2 31860333#3 31860333#4 32395288#0 32395288#2 32395288#3 32395327#0 32395352#0 32395361#0 32395414#0 32395414#1 32395464 37681424#0 37681424#1 37681425#0 37681425#5 37681425#7 391891458#0 41051113#0 41051113#1 41051113#2 42487768 42491779 435015473 653473568#0 653473568#1 653473569#0 653473569#1 653473569#2 653473569#3 653473569#5 93386922"/>
    <taz id="TAZ_017" color="red" edges="-120125554 -136728347#4 -139230366 -160314351#0 -18809672#1 -201963533#0 -201963533#1 -201963533#1.120 -201963533#1.145 -201963533#4 -201963533#5 -218647954 -22690205#1 -22690205#2 -22690205#3 -22690206#0 -22690206#1 -22690206#2 -22716549#6 -22879845 -233675413#0 -233675413#1 -233675413#2 -233675413#3 -233675413#6 -233675413#8 -23436553#1 -23436553#2 -23525483#0 -23525483#5 -23525483#6 -23525483#7 -24634506#0 -24634506#1 -24634506#2 -24634507 -24634508 -24634509#0 -24634509#7 -24634510#15 -24634510#18 -24634510#8 -24634513#5 -24634513#6 -24634514#1 -24634516#0 -24634516#1 -24634516#2 -24634517#12 -24634517#16 -24634517#17 -24634517#18 -24634517#19 -24634517#3 -24634517#5 -24634517#7 -24634517#8 -24634518#0 -24634518#1 -24634518#2 -24634519 -24634521#0 -24634521#1 -24634521#2 -24693977#0 -24693977#1 -31395281 -315392062#4 104010439#1 104010460#1 10427692#0 10427692#2 10427692#3 10427692#4 10427692#5 10427692#6 10427692#7 10427692#7.50 10427692#8 118362731 120125554 128906569#10 160314346#0 160314346#1 160314351#0 160314351#1 176550249#0 176550249#1 176550249#2 18809672#0 201089423#0 201089423#2 201238726#0 201238726#0.117 201238726#1 201238730 201963533#0 201963533#1 201963533#4 201963533#5 202070434#0 202070434#2 204588664#0 218647954 22690205#0 22690205#2 22690205#3 22690206#0 22690206#1 22690206#2 22716549#0 22879845 23436553#0 23436553#2 23436553#3 23436553#4 23525483#0 23525483#1 23525483#6 23525483#7 24608845 24634506#0 24634506#1 24634506#2 24634507 24634508 24634509#0 24634509#1 24634510#16 24634510#7 24634510#9 24634513#0 24634513#6 24634514#0 24634516#0 24634516#1 24634516#2 24634517#1 24634517#13 24634517#17 24634517#18 24634517#19 24634517#4 24634517#6 24634517#8 24634517#9 24634518#0 24634518#1 24634518#2 24634519 24634521#0 24634521#1 24634521#2 285549250#0 285716192#0 285716192#0.83 31395281 32124743 32124744"/>
    <taz id="TAZ_021" color="cyan" edges="-136436466 -160314345#0 -160314345#1 -160314345#2 -160314345#3 -160314345#4 -160314345#5 -160314345#6 -202092675.36 -24608842#0 -24608842#2 -24608843 -24608844 -24608846#0 -24608846#1 -24634411 -24634413#0 -24634413#1 -24634413#2 -24634414#0 -24634414#1 -24634414#2 -24634414#3 -24634414#4 -24634414#5 -24634415 -24634417 -24978943#1 -25955175#0 -25955175#1 -25955175#2 -315358245 -315358248#1 -315358253#0 -315358253#1 -315358253#2 -315358253#3 -37386279 -4942389#0 -4942389#1 136436466 160314345#0 160314345#1 160314345#2 160314345#3 160314345#4 160314345#5 160314345#6 168702039#0 168702039#1 168702040#1 168702040#2 168702040#3 168702040#4 172493335#1 174800513 201201950#0 201201950#1 201201950#2 201201950#3 201201950#4 201238718#0 201238718#1 201238718#2 202092675 202092676#0 202092676#0.24 24608842#0 24608842#1 24608843 24608844 24608846#0 24608846#1 24634411 24634413#0 24634413#1 24634413#2 24634414#0 24634414#1 24634414#2 24634414#3 24634414#4 24634414#5 24634414#5.51 24634415 24634416 24634417 24693977#0 24693977#1 24978943#0 266565295#4 266565295#5 272042145 28361235#0 29236658#2 315358245.27 315358248#0 315358253#0 315358253#1 315358253#2 315358253#3 315392062#0 32124634 32124637#0 32124637#1 32999434#0 32999435 37386279 386687235 386687239#0 386687239#1 42745545#0 42745545#2 42745545#3 42745545#4 47316353 4942381 4942389#0 4942389#1 54169280#2 54169287"/>
    <taz id="TAZ_022" color="green" edges="-140684000#0 -140684000#1 -148050447#0 -148050447#1 -148050448#0 -148050451#2 -148050452#0 -148050452#1 -148050453#1 -148050453#3 -148050453#4 -148050453#5 -148050455#0 -148050455#1 -148050455#2 -148050456 -148050457#2 -165414587#0 -165520703#4 -200741048 -203127020#4 -203127050 -248012814 -24989986 -25665375#1 -306431310#0 -306431310#1 -64464377#3 116687469#0 140684000#0 140684000#1 140684001 148050447#0 148050447#1 148050448#0 148050448#1 148050451#0 148050452#0 148050452#1 148050453#0 148050453#2 148050453#4 148050453#5 148050455#0 148050455#1 148050455#2 148050456 148050457#0 165414587#1 165520703#0 165520704 165520706 200741048 203127020#0 233673425#0 233673425#1 248012814 248012815#0 248012815#1 24890429#0 24890429#1 24890429#2 24890450 24977590#0 24977590#1 24989982#0 24989986 25665375#1 25794520 25794522 25955089 25955175#0 25955175#1 25955175#2 266565295#0 266565295#1 266565295#2 266565295#3 266565299 266567307#0 28639688#0 28639688#1 28639688#3 29238186 30399325 30404124 306431310#1 31342305 317613599#2 317613600#2 32009826#0 32009826#1 32009827 380273341 391606922 42745545#5 42745545#5.128 42745545#6 64464384#1 64464399#0 64464399#1 64464420 64464430 gneE208 gneE248"/>
    <taz id="TAZ_023" color="blue" edges="-10427692#1 -10427692#2 -10427692#3 -10427692#4 -10427692#5 -10427692#6 -10427692#7 -10427692#8 -128361102#1 -136888519#0 -136888519#1 -137132992#2 -137454133#0 -137454133#1 -137454133#5 -137672872 -148352067 -170018165#0 -170018165#1 -170018165#2.164 -170018165#2.210 -170018165#3 -173203413#7 -174800513 -193806654.215 -193806654.222 -193806654.271 -193806654.282 -201089420#1 -201201945#0 -201201945#0.78 -201201945#1 -201201945#2 -201201945#6 -201201945#7 -201201945#8 -201238726#0 -201238726#0.98 -201238726#1 -224251774#0 -224251774#1 -224251776#1 -224892339#3 -224892361#1 -224892361#2 -224892361#6 -224892361#8 -22724699#1 -22724699#11 -22724699#2 -22724699#6 -28319300#2 -285549250#1 -286646456#0 -286646456#2 -306240162#1 -306240162#4 -315358255#4 -315358257#0.26 -315358257#2 -315358258 -379510292 -399835085#0 -40888356#6 -41203916#3 -611319827 128361107#0 128361107#1 128361109#0 128361109#1 128361109#3 128361109#4 133765794#0 136888519#1 137132992#0 137132993#0 137132994#0 137132994#1 137132994#2 137132996 137132997 137132998 137133006#0 137133006#1 137454133#0 137454133#1 137454133#2 137672874#0 138396239#1 148352067 170018165#0 170018165#1 170018165#2 170018165#2.175 173203413#0 175770996#0 176550246 186865419#1 193806654 193806654.200 193806654.211 193806654.258 201143839 201143840 201201953#0 201201953#10 201201953#12 201201953#2 201201953#4 201234440 201238719#0 201238726#0 201238729#1 201238729#2 201238729#3 213252671#0 224251774#0 224251774#1 224251776#0 224892339#0 224892361#1 224892361#2 224892361#3 224892361#7 22715565#4 22724699#0 22724699#2 22724699#3 22724699#7 28319300#0 28319300#3 286646456#0 286646456#1 306240162#0 306240162#4 306431419 306431420 315358255#0 320733913 320733915 320733916 40888356#0 40888360#0 41203916#0 612075153#0 612075153#1 77414799#0 77414799#1 77414799#2 77414799#3 77414807#0 77414810#0 98323027#0 gneE17"/>
    <taz id="TAZ_024" color="yellow" edges="-10425743 -108239224#1 -136436468#0 -136436468#2 -164078536 -201894096#3 -201894096#5 -201894096#8 -201950247#0 -201950247#1 -201950247#2 -201950247#3 -201950247#4 -201950247#5 -201950247#6 -201950247#7 -201950247#8 -201950250#0 -201950250#1 -201950250#2 -201950259#3 -201950259#6 -201950263#10 -201950263#6 -23622271#1 -23622271#5 -23622271#6 -24634414#0 -25117391#1 -25117391#2 -26676668 -26677213#5 -26677214#2 -26677214#3 -26677214#4 -26677214#5 -26677216#0 -26677216#1 -26677216#2 -26677216#4 -26677416#0 -26677416#1 -26677416#3 -26677416#7 -26677417#0 -26677417#1 -26677539 -26677540#0 -26677540#1 -26677540#2 -26677541 -26677542#0 -26677542#1 -26678225 -31403616#3 -315358254#1 -315358258 -320733909#0 -320733909#2 -320733910#1 -36962701#0 -36962701#1 -40888350 -40888351#0 -40888351#2 -40888351#6 -40888354#0 -40888354#1 -40888354#2 -40888359 -40888443 -41203918#1 -42738708 -42738709#0.161 -42738709#1 -49887169#3 -53396619#1 -53396619#2 -53396619#3 -53396619#4 -53396619#5 -53396619#6 -54169231#0 -54169231#1 -54169231#2 -611319827 -612075153#0 -612075153#1 10425743 108239224#0 126909938 129379918#0 129379920#0 129379920#1 129379921#0 129379921#1 129379922 129379923 129379925 129379967#0 129379968 136436466 136436468#0 136436468#1 136618613#0 136618613#1 137672872 137672874#0 156788416#1 164078530 164078531#0 164078531#1 164078531#2 164078536 174800513 193806654.258 193806654.273 201089420#0 201201945#0 201201945#1 201201945#2 201201945#3 201201945#7 201201945#8 201894096#4 201894096#7 201950247#0 201950247#1 201950247#2 201950247#3 201950247#4 201950247#5 201950247#6 201950247#7 201950247#8 201950250#0 201950250#1 201950250#2 201950259#0 201950259#4 201950263#0 201950263#7 203127018 220012723 23166741#0 23166741#2 23166741#5 23622271#0 23622271#3 23622271#6 24634414#0 25117391#0 25117391#2 25503467 26676668 26677213#0 26677214#0 26677214#3 26677214#4 26677214#5 26677216#0 26677216#1 26677216#2 26677216#3 26677416#0 26677416#1 26677416#2 26677416#3 26677416#4 26677417#0 26677417#1 26677539 26677540#0 26677540#1 26677540#2 26677541 26677542#0 26677542#1 26678225 272042143 27267723 315358242#0 315358242#1 315358242#2 315358242#3 315358242#3.130 315358244 315358246 315358247#0 315358250#0 315358250#1 315358251#1 315358252#0 315358254#0 315358257#0 315358257#0.43 32061997#0 32061997#1 32061997#1.157 320733908 320733909#1 320733910#2 36962701#0 36962701#1 379897806 386687242 399835085#0 399835085#1 40888351#0 40888351#1 40888351#3 40888354#0 40888354#1 40888354#2 40888359 40888443 41203918#0 42738709#0 49887169#1 53396619#1 53396619#2 53396619#3 53396619#4 53396619#5 53396619#6 54169231#0 54169231#1 54169231#2 542769276#0 627181818#0 627181818#1 77414800#0 8033457#0 gneE4"/>
    <taz id="TAZ_025" color="yellow" edges="-10425532#5 -126909938 -129379918#1 -129379920#0 -129379920#1 -129379921#0 -129379921#1 -129379922 -129379923 -129379925 -136436466 -136618613#0 -136618613#1 -137246371#1 -137246371#2 -138002149#0 -138002149#1 -138002149#2 -138396693#1 -156788416#1 -164078530 -164078531#0 -164078531#0.84 -164078531#1 -164078531#2 -174645624 -25117417#0 -25117417#1 -25117417#4 -25316932#4 -25665446#0 -25665446#1 -25665446#2 -25665537#1 -30399663#1 -315358242#0 -315358242#1 -315358242#2 -315358243 -315358244 -315358246 -315358250#0 -315358250#1 -315358251#0 -315358251#1 -315358252#1 -32021408 -32061997#0 -32061997#2 -35744086#2 -379897806 -42491774 -447569997#0 -447569998#1 -53396623#0 -53396623#1 -53898183 -542769276#1 -54828620 -627181818#0 -627181818#1 10425532#0 137246371#0 137246371#2 137246371#2.17 137685155#0 138002149#0 138002149#1 138002149#2 138396693#0 174645624 25117417#0 25117417#1 25117417#2 25316895 25316932#0 25665446#0 25665446#1 25665446#2 25665537#0 272042143 29119849#0 29119849#1 29119850 29119850.70 30399326#0 30399662#0 30399662#1 30399663#0 379897807 386687232#0 42491774 447569997#0 447569997#1 47316353 47316356 4942376 4942381 53396623#0 53396623#1 53898183 54169280#0 54169280#1 54169280#2 54169280#3 54169280#4 54169280#6 54169287 54828620 54858973#2"/>
    <taz id="TAZ_026" color="red" edges="-138300620#6 -160314346#0 -160314346#1 -160314351#0 -160314351#1 -174800513 -201238718#0 -201238718#1 -201238718#2 -201238724 -218647947#1 -22879845 -23436553#3 -23436553#4 -24608845 -24634505 -24634510#0 -24634510#5 -24634510#6 -24634511 138300620#0 176550249#2 176550249#3 176550249#4 201238724 24634505 24634510#0 24634510#1 24634510#6 24634511"/>